version 2
run General-2-20121105-21:04:19-8903
attr configname General
attr datetime 20121105-21:04:19
attr experiment General
attr inifile dxps.ini
attr iterationvars $n=12
attr iterationvars2 "$n=12, $repetition=0"
attr measurement $n=12
attr n 12
attr network oversim.underlay.simpleunderlay.SimpleUnderlayNetwork
attr processid 8903
attr repetition 0
attr replication #0
attr resultdir results
attr runnumber 2
attr seedset 2

scalar . 	n 	12
scalar SimpleUnderlayNetwork.underlayConfigurator 	"Terminals added" 	4096
scalar SimpleUnderlayNetwork.underlayConfigurator 	"Terminals removed" 	0
scalar SimpleUnderlayNetwork.globalObserver.globalFunctions[0].function.observer 	"XmlPsAppMessageObserver: Node 0 Sent Subscription" 	0
scalar SimpleUnderlayNetwork.globalObserver.globalFunctions[0].function.observer 	"XmlPsAppMessageObserver: Node 0 Received Messages" 	0
scalar SimpleUnderlayNetwork.globalObserver.globalFunctions[0].function.observer 	"XmlPsAppMessageObserver: Node 0 False Positives" 	0
scalar SimpleUnderlayNetwork.globalObserver.globalFunctions[0].function.observer 	"XmlPsAppMessageObserver: Node 0 Sent Publication" 	111
scalar SimpleUnderlayNetwork.globalObserver.globalFunctions[0].function.observer 	"XmlPsAppMessageObserver: Node 1 Sent Subscription" 	0
scalar SimpleUnderlayNetwork.globalObserver.globalFunctions[0].function.observer 	"XmlPsAppMessageObserver: Node 1 Received Messages" 	0
scalar SimpleUnderlayNetwork.globalObserver.globalFunctions[0].function.observer 	"XmlPsAppMessageObserver: Node 1 False Positives" 	0
scalar SimpleUnderlayNetwork.globalObserver.globalFunctions[0].function.observer 	"XmlPsAppMessageObserver: Node 1 Sent Publication" 	102
scalar SimpleUnderlayNetwork.globalObserver.globalFunctions[0].function.observer 	"XmlPsAppMessageObserver: Node 2 Sent Subscription" 	0
scalar SimpleUnderlayNetwork.globalObserver.globalFunctions[0].function.observer 	"XmlPsAppMessageObserver: Node 2 Received Messages" 	0
scalar SimpleUnderlayNetwork.globalObserver.globalFunctions[0].function.observer 	"XmlPsAppMessageObserver: Node 2 False Positives" 	0
scalar SimpleUnderlayNetwork.globalObserver.globalFunctions[0].function.observer 	"XmlPsAppMessageObserver: Node 2 Sent Publication" 	106
scalar SimpleUnderlayNetwork.globalObserver.globalFunctions[0].function.observer 	"XmlPsAppMessageObserver: Node 3 Sent Subscription" 	0
scalar SimpleUnderlayNetwork.globalObserver.globalFunctions[0].function.observer 	"XmlPsAppMessageObserver: Node 3 Received Messages" 	0
scalar SimpleUnderlayNetwork.globalObserver.globalFunctions[0].function.observer 	"XmlPsAppMessageObserver: Node 3 False Positives" 	0
scalar SimpleUnderlayNetwork.globalObserver.globalFunctions[0].function.observer 	"XmlPsAppMessageObserver: Node 3 Sent Publication" 	105
scalar SimpleUnderlayNetwork.globalObserver.globalFunctions[0].function.observer 	"XmlPsAppMessageObserver: Node 4 Sent Subscription" 	0
scalar SimpleUnderlayNetwork.globalObserver.globalFunctions[0].function.observer 	"XmlPsAppMessageObserver: Node 4 Received Messages" 	0
scalar SimpleUnderlayNetwork.globalObserver.globalFunctions[0].function.observer 	"XmlPsAppMessageObserver: Node 4 False Positives" 	0
scalar SimpleUnderlayNetwork.globalObserver.globalFunctions[0].function.observer 	"XmlPsAppMessageObserver: Node 4 Sent Publication" 	96
scalar SimpleUnderlayNetwork.globalObserver.globalFunctions[0].function.observer 	"XmlPsAppMessageObserver: Node 5 Sent Subscription" 	0
scalar SimpleUnderlayNetwork.globalObserver.globalFunctions[0].function.observer 	"XmlPsAppMessageObserver: Node 5 Received Messages" 	0
scalar SimpleUnderlayNetwork.globalObserver.globalFunctions[0].function.observer 	"XmlPsAppMessageObserver: Node 5 False Positives" 	0
scalar SimpleUnderlayNetwork.globalObserver.globalFunctions[0].function.observer 	"XmlPsAppMessageObserver: Node 5 Sent Publication" 	99
scalar SimpleUnderlayNetwork.globalObserver.globalFunctions[0].function.observer 	"XmlPsAppMessageObserver: Node 6 Sent Subscription" 	0
scalar SimpleUnderlayNetwork.globalObserver.globalFunctions[0].function.observer 	"XmlPsAppMessageObserver: Node 6 Received Messages" 	0
scalar SimpleUnderlayNetwork.globalObserver.globalFunctions[0].function.observer 	"XmlPsAppMessageObserver: Node 6 False Positives" 	0
scalar SimpleUnderlayNetwork.globalObserver.globalFunctions[0].function.observer 	"XmlPsAppMessageObserver: Node 6 Sent Publication" 	106
scalar SimpleUnderlayNetwork.globalObserver.globalFunctions[0].function.observer 	"XmlPsAppMessageObserver: Node 7 Sent Subscription" 	0
scalar SimpleUnderlayNetwork.globalObserver.globalFunctions[0].function.observer 	"XmlPsAppMessageObserver: Node 7 Received Messages" 	0
scalar SimpleUnderlayNetwork.globalObserver.globalFunctions[0].function.observer 	"XmlPsAppMessageObserver: Node 7 False Positives" 	0
scalar SimpleUnderlayNetwork.globalObserver.globalFunctions[0].function.observer 	"XmlPsAppMessageObserver: Node 7 Sent Publication" 	101
scalar SimpleUnderlayNetwork.globalObserver.globalFunctions[0].function.observer 	"XmlPsAppMessageObserver: Node 8 Sent Subscription" 	0
scalar SimpleUnderlayNetwork.globalObserver.globalFunctions[0].function.observer 	"XmlPsAppMessageObserver: Node 8 Received Messages" 	0
scalar SimpleUnderlayNetwork.globalObserver.globalFunctions[0].function.observer 	"XmlPsAppMessageObserver: Node 8 False Positives" 	0
scalar SimpleUnderlayNetwork.globalObserver.globalFunctions[0].function.observer 	"XmlPsAppMessageObserver: Node 8 Sent Publication" 	100
scalar SimpleUnderlayNetwork.globalObserver.globalFunctions[0].function.observer 	"XmlPsAppMessageObserver: Node 9 Sent Subscription" 	0
scalar SimpleUnderlayNetwork.globalObserver.globalFunctions[0].function.observer 	"XmlPsAppMessageObserver: Node 9 Received Messages" 	0
scalar SimpleUnderlayNetwork.globalObserver.globalFunctions[0].function.observer 	"XmlPsAppMessageObserver: Node 9 False Positives" 	0
scalar SimpleUnderlayNetwork.globalObserver.globalFunctions[0].function.observer 	"XmlPsAppMessageObserver: Node 9 Sent Publication" 	94
scalar SimpleUnderlayNetwork.globalObserver.globalFunctions[0].function.observer 	"XmlPsAppMessageObserver: Node 10 Sent Subscription" 	0
scalar SimpleUnderlayNetwork.globalObserver.globalFunctions[0].function.observer 	"XmlPsAppMessageObserver: Node 10 Received Messages" 	0
scalar SimpleUnderlayNetwork.globalObserver.globalFunctions[0].function.observer 	"XmlPsAppMessageObserver: Node 10 False Positives" 	0
scalar SimpleUnderlayNetwork.globalObserver.globalFunctions[0].function.observer 	"XmlPsAppMessageObserver: Node 10 Sent Publication" 	90
scalar SimpleUnderlayNetwork.globalObserver.globalFunctions[0].function.observer 	"XmlPsAppMessageObserver: Node 11 Sent Subscription" 	0
scalar SimpleUnderlayNetwork.globalObserver.globalFunctions[0].function.observer 	"XmlPsAppMessageObserver: Node 11 Received Messages" 	0
scalar SimpleUnderlayNetwork.globalObserver.globalFunctions[0].function.observer 	"XmlPsAppMessageObserver: Node 11 False Positives" 	0
scalar SimpleUnderlayNetwork.globalObserver.globalFunctions[0].function.observer 	"XmlPsAppMessageObserver: Node 11 Sent Publication" 	118
scalar SimpleUnderlayNetwork.globalObserver.globalFunctions[0].function.observer 	"XmlPsAppMessageObserver: Node 12 Sent Subscription" 	0
scalar SimpleUnderlayNetwork.globalObserver.globalFunctions[0].function.observer 	"XmlPsAppMessageObserver: Node 12 Received Messages" 	0
scalar SimpleUnderlayNetwork.globalObserver.globalFunctions[0].function.observer 	"XmlPsAppMessageObserver: Node 12 False Positives" 	0
scalar SimpleUnderlayNetwork.globalObserver.globalFunctions[0].function.observer 	"XmlPsAppMessageObserver: Node 12 Sent Publication" 	94
scalar SimpleUnderlayNetwork.globalObserver.globalFunctions[0].function.observer 	"XmlPsAppMessageObserver: Node 13 Sent Subscription" 	0
scalar SimpleUnderlayNetwork.globalObserver.globalFunctions[0].function.observer 	"XmlPsAppMessageObserver: Node 13 Received Messages" 	0
scalar SimpleUnderlayNetwork.globalObserver.globalFunctions[0].function.observer 	"XmlPsAppMessageObserver: Node 13 False Positives" 	0
scalar SimpleUnderlayNetwork.globalObserver.globalFunctions[0].function.observer 	"XmlPsAppMessageObserver: Node 13 Sent Publication" 	107
scalar SimpleUnderlayNetwork.globalObserver.globalFunctions[0].function.observer 	"XmlPsAppMessageObserver: Node 14 Sent Subscription" 	0
scalar SimpleUnderlayNetwork.globalObserver.globalFunctions[0].function.observer 	"XmlPsAppMessageObserver: Node 14 Received Messages" 	0
scalar SimpleUnderlayNetwork.globalObserver.globalFunctions[0].function.observer 	"XmlPsAppMessageObserver: Node 14 False Positives" 	0
scalar SimpleUnderlayNetwork.globalObserver.globalFunctions[0].function.observer 	"XmlPsAppMessageObserver: Node 14 Sent Publication" 	115
scalar SimpleUnderlayNetwork.globalObserver.globalFunctions[0].function.observer 	"XmlPsAppMessageObserver: Node 15 Sent Subscription" 	0
scalar SimpleUnderlayNetwork.globalObserver.globalFunctions[0].function.observer 	"XmlPsAppMessageObserver: Node 15 Received Messages" 	0
scalar SimpleUnderlayNetwork.globalObserver.globalFunctions[0].function.observer 	"XmlPsAppMessageObserver: Node 15 False Positives" 	0
scalar SimpleUnderlayNetwork.globalObserver.globalFunctions[0].function.observer 	"XmlPsAppMessageObserver: Node 15 Sent Publication" 	105
scalar SimpleUnderlayNetwork.globalObserver.globalFunctions[0].function.observer 	"XmlPsAppMessageObserver: Node 16 Sent Subscription" 	0
scalar SimpleUnderlayNetwork.globalObserver.globalFunctions[0].function.observer 	"XmlPsAppMessageObserver: Node 16 Received Messages" 	0
scalar SimpleUnderlayNetwork.globalObserver.globalFunctions[0].function.observer 	"XmlPsAppMessageObserver: Node 16 False Positives" 	0
scalar SimpleUnderlayNetwork.globalObserver.globalFunctions[0].function.observer 	"XmlPsAppMessageObserver: Node 16 Sent Publication" 	108
scalar SimpleUnderlayNetwork.globalObserver.globalFunctions[0].function.observer 	"XmlPsAppMessageObserver: Node 17 Sent Subscription" 	0
scalar SimpleUnderlayNetwork.globalObserver.globalFunctions[0].function.observer 	"XmlPsAppMessageObserver: Node 17 Received Messages" 	0
scalar SimpleUnderlayNetwork.globalObserver.globalFunctions[0].function.observer 	"XmlPsAppMessageObserver: Node 17 False Positives" 	0
scalar SimpleUnderlayNetwork.globalObserver.globalFunctions[0].function.observer 	"XmlPsAppMessageObserver: Node 17 Sent Publication" 	96
scalar SimpleUnderlayNetwork.globalObserver.globalFunctions[0].function.observer 	"XmlPsAppMessageObserver: Node 18 Sent Subscription" 	0
scalar SimpleUnderlayNetwork.globalObserver.globalFunctions[0].function.observer 	"XmlPsAppMessageObserver: Node 18 Received Messages" 	0
scalar SimpleUnderlayNetwork.globalObserver.globalFunctions[0].function.observer 	"XmlPsAppMessageObserver: Node 18 False Positives" 	0
scalar SimpleUnderlayNetwork.globalObserver.globalFunctions[0].function.observer 	"XmlPsAppMessageObserver: Node 18 Sent Publication" 	87
scalar SimpleUnderlayNetwork.globalObserver.globalFunctions[0].function.observer 	"XmlPsAppMessageObserver: Node 19 Sent Subscription" 	0
scalar SimpleUnderlayNetwork.globalObserver.globalFunctions[0].function.observer 	"XmlPsAppMessageObserver: Node 19 Received Messages" 	0
scalar SimpleUnderlayNetwork.globalObserver.globalFunctions[0].function.observer 	"XmlPsAppMessageObserver: Node 19 False Positives" 	0
scalar SimpleUnderlayNetwork.globalObserver.globalFunctions[0].function.observer 	"XmlPsAppMessageObserver: Node 19 Sent Publication" 	102
scalar SimpleUnderlayNetwork.globalObserver.globalFunctions[0].function.observer 	"XmlPsAppMessageObserver: Node 20 Sent Subscription" 	0
scalar SimpleUnderlayNetwork.globalObserver.globalFunctions[0].function.observer 	"XmlPsAppMessageObserver: Node 20 Received Messages" 	0
scalar SimpleUnderlayNetwork.globalObserver.globalFunctions[0].function.observer 	"XmlPsAppMessageObserver: Node 20 False Positives" 	0
scalar SimpleUnderlayNetwork.globalObserver.globalFunctions[0].function.observer 	"XmlPsAppMessageObserver: Node 20 Sent Publication" 	98
scalar SimpleUnderlayNetwork.globalObserver.globalFunctions[0].function.observer 	"XmlPsAppMessageObserver: Node 21 Sent Subscription" 	0
scalar SimpleUnderlayNetwork.globalObserver.globalFunctions[0].function.observer 	"XmlPsAppMessageObserver: Node 21 Received Messages" 	0
scalar SimpleUnderlayNetwork.globalObserver.globalFunctions[0].function.observer 	"XmlPsAppMessageObserver: Node 21 False Positives" 	0
scalar SimpleUnderlayNetwork.globalObserver.globalFunctions[0].function.observer 	"XmlPsAppMessageObserver: Node 21 Sent Publication" 	108
scalar SimpleUnderlayNetwork.globalObserver.globalFunctions[0].function.observer 	"XmlPsAppMessageObserver: Node 22 Sent Subscription" 	0
scalar SimpleUnderlayNetwork.globalObserver.globalFunctions[0].function.observer 	"XmlPsAppMessageObserver: Node 22 Received Messages" 	0
scalar SimpleUnderlayNetwork.globalObserver.globalFunctions[0].function.observer 	"XmlPsAppMessageObserver: Node 22 False Positives" 	0
scalar SimpleUnderlayNetwork.globalObserver.globalFunctions[0].function.observer 	"XmlPsAppMessageObserver: Node 22 Sent Publication" 	100
scalar SimpleUnderlayNetwork.globalObserver.globalFunctions[0].function.observer 	"XmlPsAppMessageObserver: Node 23 Sent Subscription" 	0
scalar SimpleUnderlayNetwork.globalObserver.globalFunctions[0].function.observer 	"XmlPsAppMessageObserver: Node 23 Received Messages" 	0
scalar SimpleUnderlayNetwork.globalObserver.globalFunctions[0].function.observer 	"XmlPsAppMessageObserver: Node 23 False Positives" 	0
scalar SimpleUnderlayNetwork.globalObserver.globalFunctions[0].function.observer 	"XmlPsAppMessageObserver: Node 23 Sent Publication" 	98
scalar SimpleUnderlayNetwork.globalObserver.globalFunctions[0].function.observer 	"XmlPsAppMessageObserver: Node 24 Sent Subscription" 	0
scalar SimpleUnderlayNetwork.globalObserver.globalFunctions[0].function.observer 	"XmlPsAppMessageObserver: Node 24 Received Messages" 	0
scalar SimpleUnderlayNetwork.globalObserver.globalFunctions[0].function.observer 	"XmlPsAppMessageObserver: Node 24 False Positives" 	0
scalar SimpleUnderlayNetwork.globalObserver.globalFunctions[0].function.observer 	"XmlPsAppMessageObserver: Node 24 Sent Publication" 	91
scalar SimpleUnderlayNetwork.globalObserver.globalFunctions[0].function.observer 	"XmlPsAppMessageObserver: Node 25 Sent Subscription" 	0
scalar SimpleUnderlayNetwork.globalObserver.globalFunctions[0].function.observer 	"XmlPsAppMessageObserver: Node 25 Received Messages" 	0
scalar SimpleUnderlayNetwork.globalObserver.globalFunctions[0].function.observer 	"XmlPsAppMessageObserver: Node 25 False Positives" 	0
scalar SimpleUnderlayNetwork.globalObserver.globalFunctions[0].function.observer 	"XmlPsAppMessageObserver: Node 25 Sent Publication" 	118
scalar SimpleUnderlayNetwork.globalObserver.globalFunctions[0].function.observer 	"XmlPsAppMessageObserver: Node 26 Sent Subscription" 	0
scalar SimpleUnderlayNetwork.globalObserver.globalFunctions[0].function.observer 	"XmlPsAppMessageObserver: Node 26 Received Messages" 	0
scalar SimpleUnderlayNetwork.globalObserver.globalFunctions[0].function.observer 	"XmlPsAppMessageObserver: Node 26 False Positives" 	0
scalar SimpleUnderlayNetwork.globalObserver.globalFunctions[0].function.observer 	"XmlPsAppMessageObserver: Node 26 Sent Publication" 	109
scalar SimpleUnderlayNetwork.globalObserver.globalFunctions[0].function.observer 	"XmlPsAppMessageObserver: Node 27 Sent Subscription" 	0
scalar SimpleUnderlayNetwork.globalObserver.globalFunctions[0].function.observer 	"XmlPsAppMessageObserver: Node 27 Received Messages" 	0
scalar SimpleUnderlayNetwork.globalObserver.globalFunctions[0].function.observer 	"XmlPsAppMessageObserver: Node 27 False Positives" 	0
scalar SimpleUnderlayNetwork.globalObserver.globalFunctions[0].function.observer 	"XmlPsAppMessageObserver: Node 27 Sent Publication" 	103
scalar SimpleUnderlayNetwork.globalObserver.globalFunctions[0].function.observer 	"XmlPsAppMessageObserver: Node 28 Sent Subscription" 	0
scalar SimpleUnderlayNetwork.globalObserver.globalFunctions[0].function.observer 	"XmlPsAppMessageObserver: Node 28 Received Messages" 	0
scalar SimpleUnderlayNetwork.globalObserver.globalFunctions[0].function.observer 	"XmlPsAppMessageObserver: Node 28 False Positives" 	0
scalar SimpleUnderlayNetwork.globalObserver.globalFunctions[0].function.observer 	"XmlPsAppMessageObserver: Node 28 Sent Publication" 	101
scalar SimpleUnderlayNetwork.globalObserver.globalFunctions[0].function.observer 	"XmlPsAppMessageObserver: Node 29 Sent Subscription" 	0
scalar SimpleUnderlayNetwork.globalObserver.globalFunctions[0].function.observer 	"XmlPsAppMessageObserver: Node 29 Received Messages" 	0
scalar SimpleUnderlayNetwork.globalObserver.globalFunctions[0].function.observer 	"XmlPsAppMessageObserver: Node 29 False Positives" 	0
scalar SimpleUnderlayNetwork.globalObserver.globalFunctions[0].function.observer 	"XmlPsAppMessageObserver: Node 29 Sent Publication" 	108
scalar SimpleUnderlayNetwork.globalObserver.globalFunctions[0].function.observer 	"XmlPsAppMessageObserver: Node 30 Sent Subscription" 	0
scalar SimpleUnderlayNetwork.globalObserver.globalFunctions[0].function.observer 	"XmlPsAppMessageObserver: Node 30 Received Messages" 	0
scalar SimpleUnderlayNetwork.globalObserver.globalFunctions[0].function.observer 	"XmlPsAppMessageObserver: Node 30 False Positives" 	0
scalar SimpleUnderlayNetwork.globalObserver.globalFunctions[0].function.observer 	"XmlPsAppMessageObserver: Node 30 Sent Publication" 	91
scalar SimpleUnderlayNetwork.globalObserver.globalFunctions[0].function.observer 	"XmlPsAppMessageObserver: Node 31 Sent Subscription" 	0
scalar SimpleUnderlayNetwork.globalObserver.globalFunctions[0].function.observer 	"XmlPsAppMessageObserver: Node 31 Received Messages" 	0
scalar SimpleUnderlayNetwork.globalObserver.globalFunctions[0].function.observer 	"XmlPsAppMessageObserver: Node 31 False Positives" 	0
scalar SimpleUnderlayNetwork.globalObserver.globalFunctions[0].function.observer 	"XmlPsAppMessageObserver: Node 31 Sent Publication" 	96
scalar SimpleUnderlayNetwork.globalObserver.globalFunctions[0].function.observer 	"XmlPsAppMessageObserver: Node 32 Sent Subscription" 	0
scalar SimpleUnderlayNetwork.globalObserver.globalFunctions[0].function.observer 	"XmlPsAppMessageObserver: Node 32 Received Messages" 	0
scalar SimpleUnderlayNetwork.globalObserver.globalFunctions[0].function.observer 	"XmlPsAppMessageObserver: Node 32 False Positives" 	0
scalar SimpleUnderlayNetwork.globalObserver.globalFunctions[0].function.observer 	"XmlPsAppMessageObserver: Node 32 Sent Publication" 	102
scalar SimpleUnderlayNetwork.globalObserver.globalFunctions[0].function.observer 	"XmlPsAppMessageObserver: Node 33 Sent Subscription" 	0
scalar SimpleUnderlayNetwork.globalObserver.globalFunctions[0].function.observer 	"XmlPsAppMessageObserver: Node 33 Received Messages" 	0
scalar SimpleUnderlayNetwork.globalObserver.globalFunctions[0].function.observer 	"XmlPsAppMessageObserver: Node 33 False Positives" 	0
scalar SimpleUnderlayNetwork.globalObserver.globalFunctions[0].function.observer 	"XmlPsAppMessageObserver: Node 33 Sent Publication" 	97
scalar SimpleUnderlayNetwork.globalObserver.globalFunctions[0].function.observer 	"XmlPsAppMessageObserver: Node 34 Sent Subscription" 	0
scalar SimpleUnderlayNetwork.globalObserver.globalFunctions[0].function.observer 	"XmlPsAppMessageObserver: Node 34 Received Messages" 	0
scalar SimpleUnderlayNetwork.globalObserver.globalFunctions[0].function.observer 	"XmlPsAppMessageObserver: Node 34 False Positives" 	0
scalar SimpleUnderlayNetwork.globalObserver.globalFunctions[0].function.observer 	"XmlPsAppMessageObserver: Node 34 Sent Publication" 	90
scalar SimpleUnderlayNetwork.globalObserver.globalFunctions[0].function.observer 	"XmlPsAppMessageObserver: Node 35 Sent Subscription" 	0
scalar SimpleUnderlayNetwork.globalObserver.globalFunctions[0].function.observer 	"XmlPsAppMessageObserver: Node 35 Received Messages" 	0
scalar SimpleUnderlayNetwork.globalObserver.globalFunctions[0].function.observer 	"XmlPsAppMessageObserver: Node 35 False Positives" 	0
scalar SimpleUnderlayNetwork.globalObserver.globalFunctions[0].function.observer 	"XmlPsAppMessageObserver: Node 35 Sent Publication" 	112
scalar SimpleUnderlayNetwork.globalObserver.globalFunctions[0].function.observer 	"XmlPsAppMessageObserver: Node 36 Sent Subscription" 	0
scalar SimpleUnderlayNetwork.globalObserver.globalFunctions[0].function.observer 	"XmlPsAppMessageObserver: Node 36 Received Messages" 	0
scalar SimpleUnderlayNetwork.globalObserver.globalFunctions[0].function.observer 	"XmlPsAppMessageObserver: Node 36 False Positives" 	0
scalar SimpleUnderlayNetwork.globalObserver.globalFunctions[0].function.observer 	"XmlPsAppMessageObserver: Node 36 Sent Publication" 	79
scalar SimpleUnderlayNetwork.globalObserver.globalFunctions[0].function.observer 	"XmlPsAppMessageObserver: Node 37 Sent Subscription" 	0
scalar SimpleUnderlayNetwork.globalObserver.globalFunctions[0].function.observer 	"XmlPsAppMessageObserver: Node 37 Received Messages" 	0
scalar SimpleUnderlayNetwork.globalObserver.globalFunctions[0].function.observer 	"XmlPsAppMessageObserver: Node 37 False Positives" 	0
scalar SimpleUnderlayNetwork.globalObserver.globalFunctions[0].function.observer 	"XmlPsAppMessageObserver: Node 37 Sent Publication" 	100
scalar SimpleUnderlayNetwork.globalObserver.globalFunctions[0].function.observer 	"XmlPsAppMessageObserver: Node 38 Sent Subscription" 	0
scalar SimpleUnderlayNetwork.globalObserver.globalFunctions[0].function.observer 	"XmlPsAppMessageObserver: Node 38 Received Messages" 	0
scalar SimpleUnderlayNetwork.globalObserver.globalFunctions[0].function.observer 	"XmlPsAppMessageObserver: Node 38 False Positives" 	0
scalar SimpleUnderlayNetwork.globalObserver.globalFunctions[0].function.observer 	"XmlPsAppMessageObserver: Node 38 Sent Publication" 	103
scalar SimpleUnderlayNetwork.globalObserver.globalFunctions[0].function.observer 	"XmlPsAppMessageObserver: Node 39 Sent Subscription" 	0
scalar SimpleUnderlayNetwork.globalObserver.globalFunctions[0].function.observer 	"XmlPsAppMessageObserver: Node 39 Received Messages" 	0
scalar SimpleUnderlayNetwork.globalObserver.globalFunctions[0].function.observer 	"XmlPsAppMessageObserver: Node 39 False Positives" 	0
scalar SimpleUnderlayNetwork.globalObserver.globalFunctions[0].function.observer 	"XmlPsAppMessageObserver: Node 39 Sent Publication" 	104
scalar SimpleUnderlayNetwork.globalObserver.globalFunctions[0].function.observer 	"XmlPsAppMessageObserver: Node 40 Sent Subscription" 	0
scalar SimpleUnderlayNetwork.globalObserver.globalFunctions[0].function.observer 	"XmlPsAppMessageObserver: Node 40 Received Messages" 	0
scalar SimpleUnderlayNetwork.globalObserver.globalFunctions[0].function.observer 	"XmlPsAppMessageObserver: Node 40 False Positives" 	0
scalar SimpleUnderlayNetwork.globalObserver.globalFunctions[0].function.observer 	"XmlPsAppMessageObserver: Node 40 Sent Publication" 	109
scalar SimpleUnderlayNetwork.globalObserver.globalFunctions[0].function.observer 	"XmlPsAppMessageObserver: Node 41 Sent Subscription" 	0
scalar SimpleUnderlayNetwork.globalObserver.globalFunctions[0].function.observer 	"XmlPsAppMessageObserver: Node 41 Received Messages" 	0
scalar SimpleUnderlayNetwork.globalObserver.globalFunctions[0].function.observer 	"XmlPsAppMessageObserver: Node 41 False Positives" 	0
scalar SimpleUnderlayNetwork.globalObserver.globalFunctions[0].function.observer 	"XmlPsAppMessageObserver: Node 41 Sent Publication" 	106
scalar SimpleUnderlayNetwork.globalObserver.globalFunctions[0].function.observer 	"XmlPsAppMessageObserver: Node 42 Sent Subscription" 	0
scalar SimpleUnderlayNetwork.globalObserver.globalFunctions[0].function.observer 	"XmlPsAppMessageObserver: Node 42 Received Messages" 	0
scalar SimpleUnderlayNetwork.globalObserver.globalFunctions[0].function.observer 	"XmlPsAppMessageObserver: Node 42 False Positives" 	0
scalar SimpleUnderlayNetwork.globalObserver.globalFunctions[0].function.observer 	"XmlPsAppMessageObserver: Node 42 Sent Publication" 	93
scalar SimpleUnderlayNetwork.globalObserver.globalFunctions[0].function.observer 	"XmlPsAppMessageObserver: Node 43 Sent Subscription" 	0
scalar SimpleUnderlayNetwork.globalObserver.globalFunctions[0].function.observer 	"XmlPsAppMessageObserver: Node 43 Received Messages" 	0
scalar SimpleUnderlayNetwork.globalObserver.globalFunctions[0].function.observer 	"XmlPsAppMessageObserver: Node 43 False Positives" 	0
scalar SimpleUnderlayNetwork.globalObserver.globalFunctions[0].function.observer 	"XmlPsAppMessageObserver: Node 43 Sent Publication" 	86
scalar SimpleUnderlayNetwork.globalObserver.globalFunctions[0].function.observer 	"XmlPsAppMessageObserver: Node 44 Sent Subscription" 	0
scalar SimpleUnderlayNetwork.globalObserver.globalFunctions[0].function.observer 	"XmlPsAppMessageObserver: Node 44 Received Messages" 	0
scalar SimpleUnderlayNetwork.globalObserver.globalFunctions[0].function.observer 	"XmlPsAppMessageObserver: Node 44 False Positives" 	0
scalar SimpleUnderlayNetwork.globalObserver.globalFunctions[0].function.observer 	"XmlPsAppMessageObserver: Node 44 Sent Publication" 	99
scalar SimpleUnderlayNetwork.globalObserver.globalFunctions[0].function.observer 	"XmlPsAppMessageObserver: Node 45 Sent Subscription" 	0
scalar SimpleUnderlayNetwork.globalObserver.globalFunctions[0].function.observer 	"XmlPsAppMessageObserver: Node 45 Received Messages" 	0
scalar SimpleUnderlayNetwork.globalObserver.globalFunctions[0].function.observer 	"XmlPsAppMessageObserver: Node 45 False Positives" 	0
scalar SimpleUnderlayNetwork.globalObserver.globalFunctions[0].function.observer 	"XmlPsAppMessageObserver: Node 45 Sent Publication" 	103
scalar SimpleUnderlayNetwork.globalObserver.globalFunctions[0].function.observer 	"XmlPsAppMessageObserver: Node 46 Sent Subscription" 	0
scalar SimpleUnderlayNetwork.globalObserver.globalFunctions[0].function.observer 	"XmlPsAppMessageObserver: Node 46 Received Messages" 	0
scalar SimpleUnderlayNetwork.globalObserver.globalFunctions[0].function.observer 	"XmlPsAppMessageObserver: Node 46 False Positives" 	0
scalar SimpleUnderlayNetwork.globalObserver.globalFunctions[0].function.observer 	"XmlPsAppMessageObserver: Node 46 Sent Publication" 	116
scalar SimpleUnderlayNetwork.globalObserver.globalFunctions[0].function.observer 	"XmlPsAppMessageObserver: Node 47 Sent Subscription" 	0
scalar SimpleUnderlayNetwork.globalObserver.globalFunctions[0].function.observer 	"XmlPsAppMessageObserver: Node 47 Received Messages" 	0
scalar SimpleUnderlayNetwork.globalObserver.globalFunctions[0].function.observer 	"XmlPsAppMessageObserver: Node 47 False Positives" 	0
scalar SimpleUnderlayNetwork.globalObserver.globalFunctions[0].function.observer 	"XmlPsAppMessageObserver: Node 47 Sent Publication" 	102
scalar SimpleUnderlayNetwork.globalObserver.globalFunctions[0].function.observer 	"XmlPsAppMessageObserver: Node 48 Sent Subscription" 	0
scalar SimpleUnderlayNetwork.globalObserver.globalFunctions[0].function.observer 	"XmlPsAppMessageObserver: Node 48 Received Messages" 	0
scalar SimpleUnderlayNetwork.globalObserver.globalFunctions[0].function.observer 	"XmlPsAppMessageObserver: Node 48 False Positives" 	0
scalar SimpleUnderlayNetwork.globalObserver.globalFunctions[0].function.observer 	"XmlPsAppMessageObserver: Node 48 Sent Publication" 	95
scalar SimpleUnderlayNetwork.globalObserver.globalFunctions[0].function.observer 	"XmlPsAppMessageObserver: Node 49 Sent Subscription" 	0
scalar SimpleUnderlayNetwork.globalObserver.globalFunctions[0].function.observer 	"XmlPsAppMessageObserver: Node 49 Received Messages" 	0
scalar SimpleUnderlayNetwork.globalObserver.globalFunctions[0].function.observer 	"XmlPsAppMessageObserver: Node 49 False Positives" 	0
scalar SimpleUnderlayNetwork.globalObserver.globalFunctions[0].function.observer 	"XmlPsAppMessageObserver: Node 49 Sent Publication" 	93
scalar SimpleUnderlayNetwork.globalObserver.globalFunctions[0].function.observer 	"XmlPsAppMessageObserver: Node 50 Sent Subscription" 	0
scalar SimpleUnderlayNetwork.globalObserver.globalFunctions[0].function.observer 	"XmlPsAppMessageObserver: Node 50 Received Messages" 	0
scalar SimpleUnderlayNetwork.globalObserver.globalFunctions[0].function.observer 	"XmlPsAppMessageObserver: Node 50 False Positives" 	0
scalar SimpleUnderlayNetwork.globalObserver.globalFunctions[0].function.observer 	"XmlPsAppMessageObserver: Node 50 Sent Publication" 	95
scalar SimpleUnderlayNetwork.globalObserver.globalFunctions[0].function.observer 	"XmlPsAppMessageObserver: Node 51 Sent Subscription" 	0
scalar SimpleUnderlayNetwork.globalObserver.globalFunctions[0].function.observer 	"XmlPsAppMessageObserver: Node 51 Received Messages" 	0
scalar SimpleUnderlayNetwork.globalObserver.globalFunctions[0].function.observer 	"XmlPsAppMessageObserver: Node 51 False Positives" 	0
scalar SimpleUnderlayNetwork.globalObserver.globalFunctions[0].function.observer 	"XmlPsAppMessageObserver: Node 51 Sent Publication" 	116
scalar SimpleUnderlayNetwork.globalObserver.globalFunctions[0].function.observer 	"XmlPsAppMessageObserver: Node 52 Sent Subscription" 	0
scalar SimpleUnderlayNetwork.globalObserver.globalFunctions[0].function.observer 	"XmlPsAppMessageObserver: Node 52 Received Messages" 	0
scalar SimpleUnderlayNetwork.globalObserver.globalFunctions[0].function.observer 	"XmlPsAppMessageObserver: Node 52 False Positives" 	0
scalar SimpleUnderlayNetwork.globalObserver.globalFunctions[0].function.observer 	"XmlPsAppMessageObserver: Node 52 Sent Publication" 	96
scalar SimpleUnderlayNetwork.globalObserver.globalFunctions[0].function.observer 	"XmlPsAppMessageObserver: Node 53 Sent Subscription" 	0
scalar SimpleUnderlayNetwork.globalObserver.globalFunctions[0].function.observer 	"XmlPsAppMessageObserver: Node 53 Received Messages" 	0
scalar SimpleUnderlayNetwork.globalObserver.globalFunctions[0].function.observer 	"XmlPsAppMessageObserver: Node 53 False Positives" 	0
scalar SimpleUnderlayNetwork.globalObserver.globalFunctions[0].function.observer 	"XmlPsAppMessageObserver: Node 53 Sent Publication" 	119
scalar SimpleUnderlayNetwork.globalObserver.globalFunctions[0].function.observer 	"XmlPsAppMessageObserver: Node 54 Sent Subscription" 	0
scalar SimpleUnderlayNetwork.globalObserver.globalFunctions[0].function.observer 	"XmlPsAppMessageObserver: Node 54 Received Messages" 	0
scalar SimpleUnderlayNetwork.globalObserver.globalFunctions[0].function.observer 	"XmlPsAppMessageObserver: Node 54 False Positives" 	0
scalar SimpleUnderlayNetwork.globalObserver.globalFunctions[0].function.observer 	"XmlPsAppMessageObserver: Node 54 Sent Publication" 	92
scalar SimpleUnderlayNetwork.globalObserver.globalFunctions[0].function.observer 	"XmlPsAppMessageObserver: Node 55 Sent Subscription" 	0
scalar SimpleUnderlayNetwork.globalObserver.globalFunctions[0].function.observer 	"XmlPsAppMessageObserver: Node 55 Received Messages" 	0
scalar SimpleUnderlayNetwork.globalObserver.globalFunctions[0].function.observer 	"XmlPsAppMessageObserver: Node 55 False Positives" 	0
scalar SimpleUnderlayNetwork.globalObserver.globalFunctions[0].function.observer 	"XmlPsAppMessageObserver: Node 55 Sent Publication" 	102
scalar SimpleUnderlayNetwork.globalObserver.globalFunctions[0].function.observer 	"XmlPsAppMessageObserver: Node 56 Sent Subscription" 	0
scalar SimpleUnderlayNetwork.globalObserver.globalFunctions[0].function.observer 	"XmlPsAppMessageObserver: Node 56 Received Messages" 	0
scalar SimpleUnderlayNetwork.globalObserver.globalFunctions[0].function.observer 	"XmlPsAppMessageObserver: Node 56 False Positives" 	0
scalar SimpleUnderlayNetwork.globalObserver.globalFunctions[0].function.observer 	"XmlPsAppMessageObserver: Node 56 Sent Publication" 	114
scalar SimpleUnderlayNetwork.globalObserver.globalFunctions[0].function.observer 	"XmlPsAppMessageObserver: Node 57 Sent Subscription" 	0
scalar SimpleUnderlayNetwork.globalObserver.globalFunctions[0].function.observer 	"XmlPsAppMessageObserver: Node 57 Received Messages" 	0
scalar SimpleUnderlayNetwork.globalObserver.globalFunctions[0].function.observer 	"XmlPsAppMessageObserver: Node 57 False Positives" 	0
scalar SimpleUnderlayNetwork.globalObserver.globalFunctions[0].function.observer 	"XmlPsAppMessageObserver: Node 57 Sent Publication" 	108
scalar SimpleUnderlayNetwork.globalObserver.globalFunctions[0].function.observer 	"XmlPsAppMessageObserver: Node 58 Sent Subscription" 	0
scalar SimpleUnderlayNetwork.globalObserver.globalFunctions[0].function.observer 	"XmlPsAppMessageObserver: Node 58 Received Messages" 	0
scalar SimpleUnderlayNetwork.globalObserver.globalFunctions[0].function.observer 	"XmlPsAppMessageObserver: Node 58 False Positives" 	0
scalar SimpleUnderlayNetwork.globalObserver.globalFunctions[0].function.observer 	"XmlPsAppMessageObserver: Node 58 Sent Publication" 	98
scalar SimpleUnderlayNetwork.globalObserver.globalFunctions[0].function.observer 	"XmlPsAppMessageObserver: Node 59 Sent Subscription" 	0
scalar SimpleUnderlayNetwork.globalObserver.globalFunctions[0].function.observer 	"XmlPsAppMessageObserver: Node 59 Received Messages" 	0
scalar SimpleUnderlayNetwork.globalObserver.globalFunctions[0].function.observer 	"XmlPsAppMessageObserver: Node 59 False Positives" 	0
scalar SimpleUnderlayNetwork.globalObserver.globalFunctions[0].function.observer 	"XmlPsAppMessageObserver: Node 59 Sent Publication" 	87
scalar SimpleUnderlayNetwork.globalObserver.globalFunctions[0].function.observer 	"XmlPsAppMessageObserver: Node 60 Sent Subscription" 	0
scalar SimpleUnderlayNetwork.globalObserver.globalFunctions[0].function.observer 	"XmlPsAppMessageObserver: Node 60 Received Messages" 	0
scalar SimpleUnderlayNetwork.globalObserver.globalFunctions[0].function.observer 	"XmlPsAppMessageObserver: Node 60 False Positives" 	0
scalar SimpleUnderlayNetwork.globalObserver.globalFunctions[0].function.observer 	"XmlPsAppMessageObserver: Node 60 Sent Publication" 	96
scalar SimpleUnderlayNetwork.globalObserver.globalFunctions[0].function.observer 	"XmlPsAppMessageObserver: Node 61 Sent Subscription" 	0
scalar SimpleUnderlayNetwork.globalObserver.globalFunctions[0].function.observer 	"XmlPsAppMessageObserver: Node 61 Received Messages" 	0
scalar SimpleUnderlayNetwork.globalObserver.globalFunctions[0].function.observer 	"XmlPsAppMessageObserver: Node 61 False Positives" 	0
scalar SimpleUnderlayNetwork.globalObserver.globalFunctions[0].function.observer 	"XmlPsAppMessageObserver: Node 61 Sent Publication" 	115
scalar SimpleUnderlayNetwork.globalObserver.globalFunctions[0].function.observer 	"XmlPsAppMessageObserver: Node 62 Sent Subscription" 	0
scalar SimpleUnderlayNetwork.globalObserver.globalFunctions[0].function.observer 	"XmlPsAppMessageObserver: Node 62 Received Messages" 	0
scalar SimpleUnderlayNetwork.globalObserver.globalFunctions[0].function.observer 	"XmlPsAppMessageObserver: Node 62 False Positives" 	0
scalar SimpleUnderlayNetwork.globalObserver.globalFunctions[0].function.observer 	"XmlPsAppMessageObserver: Node 62 Sent Publication" 	93
scalar SimpleUnderlayNetwork.globalObserver.globalFunctions[0].function.observer 	"XmlPsAppMessageObserver: Node 63 Sent Subscription" 	0
scalar SimpleUnderlayNetwork.globalObserver.globalFunctions[0].function.observer 	"XmlPsAppMessageObserver: Node 63 Received Messages" 	0
scalar SimpleUnderlayNetwork.globalObserver.globalFunctions[0].function.observer 	"XmlPsAppMessageObserver: Node 63 False Positives" 	0
scalar SimpleUnderlayNetwork.globalObserver.globalFunctions[0].function.observer 	"XmlPsAppMessageObserver: Node 63 Sent Publication" 	121
scalar SimpleUnderlayNetwork.globalObserver.globalFunctions[0].function.observer 	"XmlPsAppMessageObserver: Node 64 Sent Subscription" 	0
scalar SimpleUnderlayNetwork.globalObserver.globalFunctions[0].function.observer 	"XmlPsAppMessageObserver: Node 64 Received Messages" 	0
scalar SimpleUnderlayNetwork.globalObserver.globalFunctions[0].function.observer 	"XmlPsAppMessageObserver: Node 64 False Positives" 	0
scalar SimpleUnderlayNetwork.globalObserver.globalFunctions[0].function.observer 	"XmlPsAppMessageObserver: Node 64 Sent Publication" 	102
scalar SimpleUnderlayNetwork.globalObserver.globalFunctions[0].function.observer 	"XmlPsAppMessageObserver: Node 65 Sent Subscription" 	0
scalar SimpleUnderlayNetwork.globalObserver.globalFunctions[0].function.observer 	"XmlPsAppMessageObserver: Node 65 Received Messages" 	0
scalar SimpleUnderlayNetwork.globalObserver.globalFunctions[0].function.observer 	"XmlPsAppMessageObserver: Node 65 False Positives" 	0
scalar SimpleUnderlayNetwork.globalObserver.globalFunctions[0].function.observer 	"XmlPsAppMessageObserver: Node 65 Sent Publication" 	90
scalar SimpleUnderlayNetwork.globalObserver.globalFunctions[0].function.observer 	"XmlPsAppMessageObserver: Node 66 Sent Subscription" 	0
scalar SimpleUnderlayNetwork.globalObserver.globalFunctions[0].function.observer 	"XmlPsAppMessageObserver: Node 66 Received Messages" 	0
scalar SimpleUnderlayNetwork.globalObserver.globalFunctions[0].function.observer 	"XmlPsAppMessageObserver: Node 66 False Positives" 	0
scalar SimpleUnderlayNetwork.globalObserver.globalFunctions[0].function.observer 	"XmlPsAppMessageObserver: Node 66 Sent Publication" 	92
scalar SimpleUnderlayNetwork.globalObserver.globalFunctions[0].function.observer 	"XmlPsAppMessageObserver: Node 67 Sent Subscription" 	0
scalar SimpleUnderlayNetwork.globalObserver.globalFunctions[0].function.observer 	"XmlPsAppMessageObserver: Node 67 Received Messages" 	0
scalar SimpleUnderlayNetwork.globalObserver.globalFunctions[0].function.observer 	"XmlPsAppMessageObserver: Node 67 False Positives" 	0
scalar SimpleUnderlayNetwork.globalObserver.globalFunctions[0].function.observer 	"XmlPsAppMessageObserver: Node 67 Sent Publication" 	95
scalar SimpleUnderlayNetwork.globalObserver.globalFunctions[0].function.observer 	"XmlPsAppMessageObserver: Node 68 Sent Subscription" 	0
scalar SimpleUnderlayNetwork.globalObserver.globalFunctions[0].function.observer 	"XmlPsAppMessageObserver: Node 68 Received Messages" 	0
scalar SimpleUnderlayNetwork.globalObserver.globalFunctions[0].function.observer 	"XmlPsAppMessageObserver: Node 68 False Positives" 	0
scalar SimpleUnderlayNetwork.globalObserver.globalFunctions[0].function.observer 	"XmlPsAppMessageObserver: Node 68 Sent Publication" 	102
scalar SimpleUnderlayNetwork.globalObserver.globalFunctions[0].function.observer 	"XmlPsAppMessageObserver: Node 69 Sent Subscription" 	0
scalar SimpleUnderlayNetwork.globalObserver.globalFunctions[0].function.observer 	"XmlPsAppMessageObserver: Node 69 Received Messages" 	0
scalar SimpleUnderlayNetwork.globalObserver.globalFunctions[0].function.observer 	"XmlPsAppMessageObserver: Node 69 False Positives" 	0
scalar SimpleUnderlayNetwork.globalObserver.globalFunctions[0].function.observer 	"XmlPsAppMessageObserver: Node 69 Sent Publication" 	100
scalar SimpleUnderlayNetwork.globalObserver.globalFunctions[0].function.observer 	"XmlPsAppMessageObserver: Node 70 Sent Subscription" 	0
scalar SimpleUnderlayNetwork.globalObserver.globalFunctions[0].function.observer 	"XmlPsAppMessageObserver: Node 70 Received Messages" 	0
scalar SimpleUnderlayNetwork.globalObserver.globalFunctions[0].function.observer 	"XmlPsAppMessageObserver: Node 70 False Positives" 	0
scalar SimpleUnderlayNetwork.globalObserver.globalFunctions[0].function.observer 	"XmlPsAppMessageObserver: Node 70 Sent Publication" 	101
scalar SimpleUnderlayNetwork.globalObserver.globalFunctions[0].function.observer 	"XmlPsAppMessageObserver: Node 71 Sent Subscription" 	0
scalar SimpleUnderlayNetwork.globalObserver.globalFunctions[0].function.observer 	"XmlPsAppMessageObserver: Node 71 Received Messages" 	0
scalar SimpleUnderlayNetwork.globalObserver.globalFunctions[0].function.observer 	"XmlPsAppMessageObserver: Node 71 False Positives" 	0
scalar SimpleUnderlayNetwork.globalObserver.globalFunctions[0].function.observer 	"XmlPsAppMessageObserver: Node 71 Sent Publication" 	93
scalar SimpleUnderlayNetwork.globalObserver.globalFunctions[0].function.observer 	"XmlPsAppMessageObserver: Node 72 Sent Subscription" 	0
scalar SimpleUnderlayNetwork.globalObserver.globalFunctions[0].function.observer 	"XmlPsAppMessageObserver: Node 72 Received Messages" 	0
scalar SimpleUnderlayNetwork.globalObserver.globalFunctions[0].function.observer 	"XmlPsAppMessageObserver: Node 72 False Positives" 	0
scalar SimpleUnderlayNetwork.globalObserver.globalFunctions[0].function.observer 	"XmlPsAppMessageObserver: Node 72 Sent Publication" 	99
scalar SimpleUnderlayNetwork.globalObserver.globalFunctions[0].function.observer 	"XmlPsAppMessageObserver: Node 73 Sent Subscription" 	0
scalar SimpleUnderlayNetwork.globalObserver.globalFunctions[0].function.observer 	"XmlPsAppMessageObserver: Node 73 Received Messages" 	0
scalar SimpleUnderlayNetwork.globalObserver.globalFunctions[0].function.observer 	"XmlPsAppMessageObserver: Node 73 False Positives" 	0
scalar SimpleUnderlayNetwork.globalObserver.globalFunctions[0].function.observer 	"XmlPsAppMessageObserver: Node 73 Sent Publication" 	88
scalar SimpleUnderlayNetwork.globalObserver.globalFunctions[0].function.observer 	"XmlPsAppMessageObserver: Node 74 Sent Subscription" 	0
scalar SimpleUnderlayNetwork.globalObserver.globalFunctions[0].function.observer 	"XmlPsAppMessageObserver: Node 74 Received Messages" 	0
scalar SimpleUnderlayNetwork.globalObserver.globalFunctions[0].function.observer 	"XmlPsAppMessageObserver: Node 74 False Positives" 	0
scalar SimpleUnderlayNetwork.globalObserver.globalFunctions[0].function.observer 	"XmlPsAppMessageObserver: Node 74 Sent Publication" 	102
scalar SimpleUnderlayNetwork.globalObserver.globalFunctions[0].function.observer 	"XmlPsAppMessageObserver: Node 75 Sent Subscription" 	0
scalar SimpleUnderlayNetwork.globalObserver.globalFunctions[0].function.observer 	"XmlPsAppMessageObserver: Node 75 Received Messages" 	0
scalar SimpleUnderlayNetwork.globalObserver.globalFunctions[0].function.observer 	"XmlPsAppMessageObserver: Node 75 False Positives" 	0
scalar SimpleUnderlayNetwork.globalObserver.globalFunctions[0].function.observer 	"XmlPsAppMessageObserver: Node 75 Sent Publication" 	90
scalar SimpleUnderlayNetwork.globalObserver.globalFunctions[0].function.observer 	"XmlPsAppMessageObserver: Node 76 Sent Subscription" 	0
scalar SimpleUnderlayNetwork.globalObserver.globalFunctions[0].function.observer 	"XmlPsAppMessageObserver: Node 76 Received Messages" 	0
scalar SimpleUnderlayNetwork.globalObserver.globalFunctions[0].function.observer 	"XmlPsAppMessageObserver: Node 76 False Positives" 	0
scalar SimpleUnderlayNetwork.globalObserver.globalFunctions[0].function.observer 	"XmlPsAppMessageObserver: Node 76 Sent Publication" 	91
scalar SimpleUnderlayNetwork.globalObserver.globalFunctions[0].function.observer 	"XmlPsAppMessageObserver: Node 77 Sent Subscription" 	0
scalar SimpleUnderlayNetwork.globalObserver.globalFunctions[0].function.observer 	"XmlPsAppMessageObserver: Node 77 Received Messages" 	0
scalar SimpleUnderlayNetwork.globalObserver.globalFunctions[0].function.observer 	"XmlPsAppMessageObserver: Node 77 False Positives" 	0
scalar SimpleUnderlayNetwork.globalObserver.globalFunctions[0].function.observer 	"XmlPsAppMessageObserver: Node 77 Sent Publication" 	98
scalar SimpleUnderlayNetwork.globalObserver.globalFunctions[0].function.observer 	"XmlPsAppMessageObserver: Node 78 Sent Subscription" 	0
scalar SimpleUnderlayNetwork.globalObserver.globalFunctions[0].function.observer 	"XmlPsAppMessageObserver: Node 78 Received Messages" 	0
scalar SimpleUnderlayNetwork.globalObserver.globalFunctions[0].function.observer 	"XmlPsAppMessageObserver: Node 78 False Positives" 	0
scalar SimpleUnderlayNetwork.globalObserver.globalFunctions[0].function.observer 	"XmlPsAppMessageObserver: Node 78 Sent Publication" 	103
scalar SimpleUnderlayNetwork.globalObserver.globalFunctions[0].function.observer 	"XmlPsAppMessageObserver: Node 79 Sent Subscription" 	0
scalar SimpleUnderlayNetwork.globalObserver.globalFunctions[0].function.observer 	"XmlPsAppMessageObserver: Node 79 Received Messages" 	0
scalar SimpleUnderlayNetwork.globalObserver.globalFunctions[0].function.observer 	"XmlPsAppMessageObserver: Node 79 False Positives" 	0
scalar SimpleUnderlayNetwork.globalObserver.globalFunctions[0].function.observer 	"XmlPsAppMessageObserver: Node 79 Sent Publication" 	103
scalar SimpleUnderlayNetwork.globalObserver.globalFunctions[0].function.observer 	"XmlPsAppMessageObserver: Node 80 Sent Subscription" 	0
scalar SimpleUnderlayNetwork.globalObserver.globalFunctions[0].function.observer 	"XmlPsAppMessageObserver: Node 80 Received Messages" 	0
scalar SimpleUnderlayNetwork.globalObserver.globalFunctions[0].function.observer 	"XmlPsAppMessageObserver: Node 80 False Positives" 	0
scalar SimpleUnderlayNetwork.globalObserver.globalFunctions[0].function.observer 	"XmlPsAppMessageObserver: Node 80 Sent Publication" 	103
scalar SimpleUnderlayNetwork.globalObserver.globalFunctions[0].function.observer 	"XmlPsAppMessageObserver: Node 81 Sent Subscription" 	0
scalar SimpleUnderlayNetwork.globalObserver.globalFunctions[0].function.observer 	"XmlPsAppMessageObserver: Node 81 Received Messages" 	0
scalar SimpleUnderlayNetwork.globalObserver.globalFunctions[0].function.observer 	"XmlPsAppMessageObserver: Node 81 False Positives" 	0
scalar SimpleUnderlayNetwork.globalObserver.globalFunctions[0].function.observer 	"XmlPsAppMessageObserver: Node 81 Sent Publication" 	116
scalar SimpleUnderlayNetwork.globalObserver.globalFunctions[0].function.observer 	"XmlPsAppMessageObserver: Node 82 Sent Subscription" 	0
scalar SimpleUnderlayNetwork.globalObserver.globalFunctions[0].function.observer 	"XmlPsAppMessageObserver: Node 82 Received Messages" 	0
scalar SimpleUnderlayNetwork.globalObserver.globalFunctions[0].function.observer 	"XmlPsAppMessageObserver: Node 82 False Positives" 	0
scalar SimpleUnderlayNetwork.globalObserver.globalFunctions[0].function.observer 	"XmlPsAppMessageObserver: Node 82 Sent Publication" 	95
scalar SimpleUnderlayNetwork.globalObserver.globalFunctions[0].function.observer 	"XmlPsAppMessageObserver: Node 83 Sent Subscription" 	0
scalar SimpleUnderlayNetwork.globalObserver.globalFunctions[0].function.observer 	"XmlPsAppMessageObserver: Node 83 Received Messages" 	0
scalar SimpleUnderlayNetwork.globalObserver.globalFunctions[0].function.observer 	"XmlPsAppMessageObserver: Node 83 False Positives" 	0
scalar SimpleUnderlayNetwork.globalObserver.globalFunctions[0].function.observer 	"XmlPsAppMessageObserver: Node 83 Sent Publication" 	94
scalar SimpleUnderlayNetwork.globalObserver.globalFunctions[0].function.observer 	"XmlPsAppMessageObserver: Node 84 Sent Subscription" 	0
scalar SimpleUnderlayNetwork.globalObserver.globalFunctions[0].function.observer 	"XmlPsAppMessageObserver: Node 84 Received Messages" 	0
scalar SimpleUnderlayNetwork.globalObserver.globalFunctions[0].function.observer 	"XmlPsAppMessageObserver: Node 84 False Positives" 	0
scalar SimpleUnderlayNetwork.globalObserver.globalFunctions[0].function.observer 	"XmlPsAppMessageObserver: Node 84 Sent Publication" 	102
scalar SimpleUnderlayNetwork.globalObserver.globalFunctions[0].function.observer 	"XmlPsAppMessageObserver: Node 85 Sent Subscription" 	0
scalar SimpleUnderlayNetwork.globalObserver.globalFunctions[0].function.observer 	"XmlPsAppMessageObserver: Node 85 Received Messages" 	0
scalar SimpleUnderlayNetwork.globalObserver.globalFunctions[0].function.observer 	"XmlPsAppMessageObserver: Node 85 False Positives" 	0
scalar SimpleUnderlayNetwork.globalObserver.globalFunctions[0].function.observer 	"XmlPsAppMessageObserver: Node 85 Sent Publication" 	108
scalar SimpleUnderlayNetwork.globalObserver.globalFunctions[0].function.observer 	"XmlPsAppMessageObserver: Node 86 Sent Subscription" 	0
scalar SimpleUnderlayNetwork.globalObserver.globalFunctions[0].function.observer 	"XmlPsAppMessageObserver: Node 86 Received Messages" 	0
scalar SimpleUnderlayNetwork.globalObserver.globalFunctions[0].function.observer 	"XmlPsAppMessageObserver: Node 86 False Positives" 	0
scalar SimpleUnderlayNetwork.globalObserver.globalFunctions[0].function.observer 	"XmlPsAppMessageObserver: Node 86 Sent Publication" 	111
scalar SimpleUnderlayNetwork.globalObserver.globalFunctions[0].function.observer 	"XmlPsAppMessageObserver: Node 87 Sent Subscription" 	0
scalar SimpleUnderlayNetwork.globalObserver.globalFunctions[0].function.observer 	"XmlPsAppMessageObserver: Node 87 Received Messages" 	0
scalar SimpleUnderlayNetwork.globalObserver.globalFunctions[0].function.observer 	"XmlPsAppMessageObserver: Node 87 False Positives" 	0
scalar SimpleUnderlayNetwork.globalObserver.globalFunctions[0].function.observer 	"XmlPsAppMessageObserver: Node 87 Sent Publication" 	104
scalar SimpleUnderlayNetwork.globalObserver.globalFunctions[0].function.observer 	"XmlPsAppMessageObserver: Node 88 Sent Subscription" 	0
scalar SimpleUnderlayNetwork.globalObserver.globalFunctions[0].function.observer 	"XmlPsAppMessageObserver: Node 88 Received Messages" 	0
scalar SimpleUnderlayNetwork.globalObserver.globalFunctions[0].function.observer 	"XmlPsAppMessageObserver: Node 88 False Positives" 	0
scalar SimpleUnderlayNetwork.globalObserver.globalFunctions[0].function.observer 	"XmlPsAppMessageObserver: Node 88 Sent Publication" 	99
scalar SimpleUnderlayNetwork.globalObserver.globalFunctions[0].function.observer 	"XmlPsAppMessageObserver: Node 89 Sent Subscription" 	0
scalar SimpleUnderlayNetwork.globalObserver.globalFunctions[0].function.observer 	"XmlPsAppMessageObserver: Node 89 Received Messages" 	0
scalar SimpleUnderlayNetwork.globalObserver.globalFunctions[0].function.observer 	"XmlPsAppMessageObserver: Node 89 False Positives" 	0
scalar SimpleUnderlayNetwork.globalObserver.globalFunctions[0].function.observer 	"XmlPsAppMessageObserver: Node 89 Sent Publication" 	98
scalar SimpleUnderlayNetwork.globalObserver.globalFunctions[0].function.observer 	"XmlPsAppMessageObserver: Node 90 Sent Subscription" 	0
scalar SimpleUnderlayNetwork.globalObserver.globalFunctions[0].function.observer 	"XmlPsAppMessageObserver: Node 90 Received Messages" 	0
scalar SimpleUnderlayNetwork.globalObserver.globalFunctions[0].function.observer 	"XmlPsAppMessageObserver: Node 90 False Positives" 	0
scalar SimpleUnderlayNetwork.globalObserver.globalFunctions[0].function.observer 	"XmlPsAppMessageObserver: Node 90 Sent Publication" 	92
scalar SimpleUnderlayNetwork.globalObserver.globalFunctions[0].function.observer 	"XmlPsAppMessageObserver: Node 91 Sent Subscription" 	0
scalar SimpleUnderlayNetwork.globalObserver.globalFunctions[0].function.observer 	"XmlPsAppMessageObserver: Node 91 Received Messages" 	0
scalar SimpleUnderlayNetwork.globalObserver.globalFunctions[0].function.observer 	"XmlPsAppMessageObserver: Node 91 False Positives" 	0
scalar SimpleUnderlayNetwork.globalObserver.globalFunctions[0].function.observer 	"XmlPsAppMessageObserver: Node 91 Sent Publication" 	112
scalar SimpleUnderlayNetwork.globalObserver.globalFunctions[0].function.observer 	"XmlPsAppMessageObserver: Node 92 Sent Subscription" 	0
scalar SimpleUnderlayNetwork.globalObserver.globalFunctions[0].function.observer 	"XmlPsAppMessageObserver: Node 92 Received Messages" 	0
scalar SimpleUnderlayNetwork.globalObserver.globalFunctions[0].function.observer 	"XmlPsAppMessageObserver: Node 92 False Positives" 	0
scalar SimpleUnderlayNetwork.globalObserver.globalFunctions[0].function.observer 	"XmlPsAppMessageObserver: Node 92 Sent Publication" 	102
scalar SimpleUnderlayNetwork.globalObserver.globalFunctions[0].function.observer 	"XmlPsAppMessageObserver: Node 93 Sent Subscription" 	0
scalar SimpleUnderlayNetwork.globalObserver.globalFunctions[0].function.observer 	"XmlPsAppMessageObserver: Node 93 Received Messages" 	0
scalar SimpleUnderlayNetwork.globalObserver.globalFunctions[0].function.observer 	"XmlPsAppMessageObserver: Node 93 False Positives" 	0
scalar SimpleUnderlayNetwork.globalObserver.globalFunctions[0].function.observer 	"XmlPsAppMessageObserver: Node 93 Sent Publication" 	84
scalar SimpleUnderlayNetwork.globalObserver.globalFunctions[0].function.observer 	"XmlPsAppMessageObserver: Node 94 Sent Subscription" 	0
scalar SimpleUnderlayNetwork.globalObserver.globalFunctions[0].function.observer 	"XmlPsAppMessageObserver: Node 94 Received Messages" 	0
scalar SimpleUnderlayNetwork.globalObserver.globalFunctions[0].function.observer 	"XmlPsAppMessageObserver: Node 94 False Positives" 	0
scalar SimpleUnderlayNetwork.globalObserver.globalFunctions[0].function.observer 	"XmlPsAppMessageObserver: Node 94 Sent Publication" 	123
scalar SimpleUnderlayNetwork.globalObserver.globalFunctions[0].function.observer 	"XmlPsAppMessageObserver: Node 95 Sent Subscription" 	0
scalar SimpleUnderlayNetwork.globalObserver.globalFunctions[0].function.observer 	"XmlPsAppMessageObserver: Node 95 Received Messages" 	0
scalar SimpleUnderlayNetwork.globalObserver.globalFunctions[0].function.observer 	"XmlPsAppMessageObserver: Node 95 False Positives" 	0
scalar SimpleUnderlayNetwork.globalObserver.globalFunctions[0].function.observer 	"XmlPsAppMessageObserver: Node 95 Sent Publication" 	100
scalar SimpleUnderlayNetwork.globalObserver.globalFunctions[0].function.observer 	"XmlPsAppMessageObserver: Node 96 Sent Subscription" 	0
scalar SimpleUnderlayNetwork.globalObserver.globalFunctions[0].function.observer 	"XmlPsAppMessageObserver: Node 96 Received Messages" 	0
scalar SimpleUnderlayNetwork.globalObserver.globalFunctions[0].function.observer 	"XmlPsAppMessageObserver: Node 96 False Positives" 	0
scalar SimpleUnderlayNetwork.globalObserver.globalFunctions[0].function.observer 	"XmlPsAppMessageObserver: Node 96 Sent Publication" 	98
scalar SimpleUnderlayNetwork.globalObserver.globalFunctions[0].function.observer 	"XmlPsAppMessageObserver: Node 97 Sent Subscription" 	0
scalar SimpleUnderlayNetwork.globalObserver.globalFunctions[0].function.observer 	"XmlPsAppMessageObserver: Node 97 Received Messages" 	0
scalar SimpleUnderlayNetwork.globalObserver.globalFunctions[0].function.observer 	"XmlPsAppMessageObserver: Node 97 False Positives" 	0
scalar SimpleUnderlayNetwork.globalObserver.globalFunctions[0].function.observer 	"XmlPsAppMessageObserver: Node 97 Sent Publication" 	118
scalar SimpleUnderlayNetwork.globalObserver.globalFunctions[0].function.observer 	"XmlPsAppMessageObserver: Node 98 Sent Subscription" 	0
scalar SimpleUnderlayNetwork.globalObserver.globalFunctions[0].function.observer 	"XmlPsAppMessageObserver: Node 98 Received Messages" 	0
scalar SimpleUnderlayNetwork.globalObserver.globalFunctions[0].function.observer 	"XmlPsAppMessageObserver: Node 98 False Positives" 	0
scalar SimpleUnderlayNetwork.globalObserver.globalFunctions[0].function.observer 	"XmlPsAppMessageObserver: Node 98 Sent Publication" 	97
scalar SimpleUnderlayNetwork.globalObserver.globalFunctions[0].function.observer 	"XmlPsAppMessageObserver: Node 99 Sent Subscription" 	0
scalar SimpleUnderlayNetwork.globalObserver.globalFunctions[0].function.observer 	"XmlPsAppMessageObserver: Node 99 Received Messages" 	0
scalar SimpleUnderlayNetwork.globalObserver.globalFunctions[0].function.observer 	"XmlPsAppMessageObserver: Node 99 False Positives" 	0
scalar SimpleUnderlayNetwork.globalObserver.globalFunctions[0].function.observer 	"XmlPsAppMessageObserver: Node 99 Sent Publication" 	96
scalar SimpleUnderlayNetwork.globalObserver.globalFunctions[0].function.observer 	"XmlPsAppMessageObserver: Node 100 Sent Subscription" 	0
scalar SimpleUnderlayNetwork.globalObserver.globalFunctions[0].function.observer 	"XmlPsAppMessageObserver: Node 100 Received Messages" 	0
scalar SimpleUnderlayNetwork.globalObserver.globalFunctions[0].function.observer 	"XmlPsAppMessageObserver: Node 100 False Positives" 	0
scalar SimpleUnderlayNetwork.globalObserver.globalFunctions[0].function.observer 	"XmlPsAppMessageObserver: Node 100 Sent Publication" 	88
scalar SimpleUnderlayNetwork.globalObserver.globalFunctions[0].function.observer 	"XmlPsAppMessageObserver: Node 101 Sent Subscription" 	0
scalar SimpleUnderlayNetwork.globalObserver.globalFunctions[0].function.observer 	"XmlPsAppMessageObserver: Node 101 Received Messages" 	0
scalar SimpleUnderlayNetwork.globalObserver.globalFunctions[0].function.observer 	"XmlPsAppMessageObserver: Node 101 False Positives" 	0
scalar SimpleUnderlayNetwork.globalObserver.globalFunctions[0].function.observer 	"XmlPsAppMessageObserver: Node 101 Sent Publication" 	97
scalar SimpleUnderlayNetwork.globalObserver.globalFunctions[0].function.observer 	"XmlPsAppMessageObserver: Node 102 Sent Subscription" 	0
scalar SimpleUnderlayNetwork.globalObserver.globalFunctions[0].function.observer 	"XmlPsAppMessageObserver: Node 102 Received Messages" 	0
scalar SimpleUnderlayNetwork.globalObserver.globalFunctions[0].function.observer 	"XmlPsAppMessageObserver: Node 102 False Positives" 	0
scalar SimpleUnderlayNetwork.globalObserver.globalFunctions[0].function.observer 	"XmlPsAppMessageObserver: Node 102 Sent Publication" 	88
scalar SimpleUnderlayNetwork.globalObserver.globalFunctions[0].function.observer 	"XmlPsAppMessageObserver: Node 103 Sent Subscription" 	0
scalar SimpleUnderlayNetwork.globalObserver.globalFunctions[0].function.observer 	"XmlPsAppMessageObserver: Node 103 Received Messages" 	0
scalar SimpleUnderlayNetwork.globalObserver.globalFunctions[0].function.observer 	"XmlPsAppMessageObserver: Node 103 False Positives" 	0
scalar SimpleUnderlayNetwork.globalObserver.globalFunctions[0].function.observer 	"XmlPsAppMessageObserver: Node 103 Sent Publication" 	110
scalar SimpleUnderlayNetwork.globalObserver.globalFunctions[0].function.observer 	"XmlPsAppMessageObserver: Node 104 Sent Subscription" 	0
scalar SimpleUnderlayNetwork.globalObserver.globalFunctions[0].function.observer 	"XmlPsAppMessageObserver: Node 104 Received Messages" 	0
scalar SimpleUnderlayNetwork.globalObserver.globalFunctions[0].function.observer 	"XmlPsAppMessageObserver: Node 104 False Positives" 	0
scalar SimpleUnderlayNetwork.globalObserver.globalFunctions[0].function.observer 	"XmlPsAppMessageObserver: Node 104 Sent Publication" 	99
scalar SimpleUnderlayNetwork.globalObserver.globalFunctions[0].function.observer 	"XmlPsAppMessageObserver: Node 105 Sent Subscription" 	0
scalar SimpleUnderlayNetwork.globalObserver.globalFunctions[0].function.observer 	"XmlPsAppMessageObserver: Node 105 Received Messages" 	0
scalar SimpleUnderlayNetwork.globalObserver.globalFunctions[0].function.observer 	"XmlPsAppMessageObserver: Node 105 False Positives" 	0
scalar SimpleUnderlayNetwork.globalObserver.globalFunctions[0].function.observer 	"XmlPsAppMessageObserver: Node 105 Sent Publication" 	102
scalar SimpleUnderlayNetwork.globalObserver.globalFunctions[0].function.observer 	"XmlPsAppMessageObserver: Node 106 Sent Subscription" 	0
scalar SimpleUnderlayNetwork.globalObserver.globalFunctions[0].function.observer 	"XmlPsAppMessageObserver: Node 106 Received Messages" 	0
scalar SimpleUnderlayNetwork.globalObserver.globalFunctions[0].function.observer 	"XmlPsAppMessageObserver: Node 106 False Positives" 	0
scalar SimpleUnderlayNetwork.globalObserver.globalFunctions[0].function.observer 	"XmlPsAppMessageObserver: Node 106 Sent Publication" 	105
scalar SimpleUnderlayNetwork.globalObserver.globalFunctions[0].function.observer 	"XmlPsAppMessageObserver: Node 107 Sent Subscription" 	0
scalar SimpleUnderlayNetwork.globalObserver.globalFunctions[0].function.observer 	"XmlPsAppMessageObserver: Node 107 Received Messages" 	0
scalar SimpleUnderlayNetwork.globalObserver.globalFunctions[0].function.observer 	"XmlPsAppMessageObserver: Node 107 False Positives" 	0
scalar SimpleUnderlayNetwork.globalObserver.globalFunctions[0].function.observer 	"XmlPsAppMessageObserver: Node 107 Sent Publication" 	74
scalar SimpleUnderlayNetwork.globalObserver.globalFunctions[0].function.observer 	"XmlPsAppMessageObserver: Node 108 Sent Subscription" 	0
scalar SimpleUnderlayNetwork.globalObserver.globalFunctions[0].function.observer 	"XmlPsAppMessageObserver: Node 108 Received Messages" 	0
scalar SimpleUnderlayNetwork.globalObserver.globalFunctions[0].function.observer 	"XmlPsAppMessageObserver: Node 108 False Positives" 	0
scalar SimpleUnderlayNetwork.globalObserver.globalFunctions[0].function.observer 	"XmlPsAppMessageObserver: Node 108 Sent Publication" 	95
scalar SimpleUnderlayNetwork.globalObserver.globalFunctions[0].function.observer 	"XmlPsAppMessageObserver: Node 109 Sent Subscription" 	0
scalar SimpleUnderlayNetwork.globalObserver.globalFunctions[0].function.observer 	"XmlPsAppMessageObserver: Node 109 Received Messages" 	0
scalar SimpleUnderlayNetwork.globalObserver.globalFunctions[0].function.observer 	"XmlPsAppMessageObserver: Node 109 False Positives" 	0
scalar SimpleUnderlayNetwork.globalObserver.globalFunctions[0].function.observer 	"XmlPsAppMessageObserver: Node 109 Sent Publication" 	118
scalar SimpleUnderlayNetwork.globalObserver.globalFunctions[0].function.observer 	"XmlPsAppMessageObserver: Node 110 Sent Subscription" 	0
scalar SimpleUnderlayNetwork.globalObserver.globalFunctions[0].function.observer 	"XmlPsAppMessageObserver: Node 110 Received Messages" 	0
scalar SimpleUnderlayNetwork.globalObserver.globalFunctions[0].function.observer 	"XmlPsAppMessageObserver: Node 110 False Positives" 	0
scalar SimpleUnderlayNetwork.globalObserver.globalFunctions[0].function.observer 	"XmlPsAppMessageObserver: Node 110 Sent Publication" 	123
scalar SimpleUnderlayNetwork.globalObserver.globalFunctions[0].function.observer 	"XmlPsAppMessageObserver: Node 111 Sent Subscription" 	0
scalar SimpleUnderlayNetwork.globalObserver.globalFunctions[0].function.observer 	"XmlPsAppMessageObserver: Node 111 Received Messages" 	0
scalar SimpleUnderlayNetwork.globalObserver.globalFunctions[0].function.observer 	"XmlPsAppMessageObserver: Node 111 False Positives" 	0
scalar SimpleUnderlayNetwork.globalObserver.globalFunctions[0].function.observer 	"XmlPsAppMessageObserver: Node 111 Sent Publication" 	103
scalar SimpleUnderlayNetwork.globalObserver.globalFunctions[0].function.observer 	"XmlPsAppMessageObserver: Node 112 Sent Subscription" 	0
scalar SimpleUnderlayNetwork.globalObserver.globalFunctions[0].function.observer 	"XmlPsAppMessageObserver: Node 112 Received Messages" 	0
scalar SimpleUnderlayNetwork.globalObserver.globalFunctions[0].function.observer 	"XmlPsAppMessageObserver: Node 112 False Positives" 	0
scalar SimpleUnderlayNetwork.globalObserver.globalFunctions[0].function.observer 	"XmlPsAppMessageObserver: Node 112 Sent Publication" 	93
scalar SimpleUnderlayNetwork.globalObserver.globalFunctions[0].function.observer 	"XmlPsAppMessageObserver: Node 113 Sent Subscription" 	0
scalar SimpleUnderlayNetwork.globalObserver.globalFunctions[0].function.observer 	"XmlPsAppMessageObserver: Node 113 Received Messages" 	0
scalar SimpleUnderlayNetwork.globalObserver.globalFunctions[0].function.observer 	"XmlPsAppMessageObserver: Node 113 False Positives" 	0
scalar SimpleUnderlayNetwork.globalObserver.globalFunctions[0].function.observer 	"XmlPsAppMessageObserver: Node 113 Sent Publication" 	107
scalar SimpleUnderlayNetwork.globalObserver.globalFunctions[0].function.observer 	"XmlPsAppMessageObserver: Node 114 Sent Subscription" 	0
scalar SimpleUnderlayNetwork.globalObserver.globalFunctions[0].function.observer 	"XmlPsAppMessageObserver: Node 114 Received Messages" 	0
scalar SimpleUnderlayNetwork.globalObserver.globalFunctions[0].function.observer 	"XmlPsAppMessageObserver: Node 114 False Positives" 	0
scalar SimpleUnderlayNetwork.globalObserver.globalFunctions[0].function.observer 	"XmlPsAppMessageObserver: Node 114 Sent Publication" 	101
scalar SimpleUnderlayNetwork.globalObserver.globalFunctions[0].function.observer 	"XmlPsAppMessageObserver: Node 115 Sent Subscription" 	0
scalar SimpleUnderlayNetwork.globalObserver.globalFunctions[0].function.observer 	"XmlPsAppMessageObserver: Node 115 Received Messages" 	0
scalar SimpleUnderlayNetwork.globalObserver.globalFunctions[0].function.observer 	"XmlPsAppMessageObserver: Node 115 False Positives" 	0
scalar SimpleUnderlayNetwork.globalObserver.globalFunctions[0].function.observer 	"XmlPsAppMessageObserver: Node 115 Sent Publication" 	82
scalar SimpleUnderlayNetwork.globalObserver.globalFunctions[0].function.observer 	"XmlPsAppMessageObserver: Node 116 Sent Subscription" 	0
scalar SimpleUnderlayNetwork.globalObserver.globalFunctions[0].function.observer 	"XmlPsAppMessageObserver: Node 116 Received Messages" 	0
scalar SimpleUnderlayNetwork.globalObserver.globalFunctions[0].function.observer 	"XmlPsAppMessageObserver: Node 116 False Positives" 	0
scalar SimpleUnderlayNetwork.globalObserver.globalFunctions[0].function.observer 	"XmlPsAppMessageObserver: Node 116 Sent Publication" 	83
scalar SimpleUnderlayNetwork.globalObserver.globalFunctions[0].function.observer 	"XmlPsAppMessageObserver: Node 117 Sent Subscription" 	0
scalar SimpleUnderlayNetwork.globalObserver.globalFunctions[0].function.observer 	"XmlPsAppMessageObserver: Node 117 Received Messages" 	0
scalar SimpleUnderlayNetwork.globalObserver.globalFunctions[0].function.observer 	"XmlPsAppMessageObserver: Node 117 False Positives" 	0
scalar SimpleUnderlayNetwork.globalObserver.globalFunctions[0].function.observer 	"XmlPsAppMessageObserver: Node 117 Sent Publication" 	97
scalar SimpleUnderlayNetwork.globalObserver.globalFunctions[0].function.observer 	"XmlPsAppMessageObserver: Node 118 Sent Subscription" 	0
scalar SimpleUnderlayNetwork.globalObserver.globalFunctions[0].function.observer 	"XmlPsAppMessageObserver: Node 118 Received Messages" 	0
scalar SimpleUnderlayNetwork.globalObserver.globalFunctions[0].function.observer 	"XmlPsAppMessageObserver: Node 118 False Positives" 	0
scalar SimpleUnderlayNetwork.globalObserver.globalFunctions[0].function.observer 	"XmlPsAppMessageObserver: Node 118 Sent Publication" 	112
scalar SimpleUnderlayNetwork.globalObserver.globalFunctions[0].function.observer 	"XmlPsAppMessageObserver: Node 119 Sent Subscription" 	0
scalar SimpleUnderlayNetwork.globalObserver.globalFunctions[0].function.observer 	"XmlPsAppMessageObserver: Node 119 Received Messages" 	0
scalar SimpleUnderlayNetwork.globalObserver.globalFunctions[0].function.observer 	"XmlPsAppMessageObserver: Node 119 False Positives" 	0
scalar SimpleUnderlayNetwork.globalObserver.globalFunctions[0].function.observer 	"XmlPsAppMessageObserver: Node 119 Sent Publication" 	110
scalar SimpleUnderlayNetwork.globalObserver.globalFunctions[0].function.observer 	"XmlPsAppMessageObserver: Node 120 Sent Subscription" 	0
scalar SimpleUnderlayNetwork.globalObserver.globalFunctions[0].function.observer 	"XmlPsAppMessageObserver: Node 120 Received Messages" 	0
scalar SimpleUnderlayNetwork.globalObserver.globalFunctions[0].function.observer 	"XmlPsAppMessageObserver: Node 120 False Positives" 	0
scalar SimpleUnderlayNetwork.globalObserver.globalFunctions[0].function.observer 	"XmlPsAppMessageObserver: Node 120 Sent Publication" 	112
scalar SimpleUnderlayNetwork.globalObserver.globalFunctions[0].function.observer 	"XmlPsAppMessageObserver: Node 121 Sent Subscription" 	0
scalar SimpleUnderlayNetwork.globalObserver.globalFunctions[0].function.observer 	"XmlPsAppMessageObserver: Node 121 Received Messages" 	0
scalar SimpleUnderlayNetwork.globalObserver.globalFunctions[0].function.observer 	"XmlPsAppMessageObserver: Node 121 False Positives" 	0
scalar SimpleUnderlayNetwork.globalObserver.globalFunctions[0].function.observer 	"XmlPsAppMessageObserver: Node 121 Sent Publication" 	95
scalar SimpleUnderlayNetwork.globalObserver.globalFunctions[0].function.observer 	"XmlPsAppMessageObserver: Node 122 Sent Subscription" 	0
scalar SimpleUnderlayNetwork.globalObserver.globalFunctions[0].function.observer 	"XmlPsAppMessageObserver: Node 122 Received Messages" 	0
scalar SimpleUnderlayNetwork.globalObserver.globalFunctions[0].function.observer 	"XmlPsAppMessageObserver: Node 122 False Positives" 	0
scalar SimpleUnderlayNetwork.globalObserver.globalFunctions[0].function.observer 	"XmlPsAppMessageObserver: Node 122 Sent Publication" 	94
scalar SimpleUnderlayNetwork.globalObserver.globalFunctions[0].function.observer 	"XmlPsAppMessageObserver: Node 123 Sent Subscription" 	0
scalar SimpleUnderlayNetwork.globalObserver.globalFunctions[0].function.observer 	"XmlPsAppMessageObserver: Node 123 Received Messages" 	0
scalar SimpleUnderlayNetwork.globalObserver.globalFunctions[0].function.observer 	"XmlPsAppMessageObserver: Node 123 False Positives" 	0
scalar SimpleUnderlayNetwork.globalObserver.globalFunctions[0].function.observer 	"XmlPsAppMessageObserver: Node 123 Sent Publication" 	100
scalar SimpleUnderlayNetwork.globalObserver.globalFunctions[0].function.observer 	"XmlPsAppMessageObserver: Node 124 Sent Subscription" 	0
scalar SimpleUnderlayNetwork.globalObserver.globalFunctions[0].function.observer 	"XmlPsAppMessageObserver: Node 124 Received Messages" 	0
scalar SimpleUnderlayNetwork.globalObserver.globalFunctions[0].function.observer 	"XmlPsAppMessageObserver: Node 124 False Positives" 	0
scalar SimpleUnderlayNetwork.globalObserver.globalFunctions[0].function.observer 	"XmlPsAppMessageObserver: Node 124 Sent Publication" 	95
scalar SimpleUnderlayNetwork.globalObserver.globalFunctions[0].function.observer 	"XmlPsAppMessageObserver: Node 125 Sent Subscription" 	0
scalar SimpleUnderlayNetwork.globalObserver.globalFunctions[0].function.observer 	"XmlPsAppMessageObserver: Node 125 Received Messages" 	0
scalar SimpleUnderlayNetwork.globalObserver.globalFunctions[0].function.observer 	"XmlPsAppMessageObserver: Node 125 False Positives" 	0
scalar SimpleUnderlayNetwork.globalObserver.globalFunctions[0].function.observer 	"XmlPsAppMessageObserver: Node 125 Sent Publication" 	98
scalar SimpleUnderlayNetwork.globalObserver.globalFunctions[0].function.observer 	"XmlPsAppMessageObserver: Node 126 Sent Subscription" 	0
scalar SimpleUnderlayNetwork.globalObserver.globalFunctions[0].function.observer 	"XmlPsAppMessageObserver: Node 126 Received Messages" 	0
scalar SimpleUnderlayNetwork.globalObserver.globalFunctions[0].function.observer 	"XmlPsAppMessageObserver: Node 126 False Positives" 	0
scalar SimpleUnderlayNetwork.globalObserver.globalFunctions[0].function.observer 	"XmlPsAppMessageObserver: Node 126 Sent Publication" 	97
scalar SimpleUnderlayNetwork.globalObserver.globalFunctions[0].function.observer 	"XmlPsAppMessageObserver: Node 127 Sent Subscription" 	0
scalar SimpleUnderlayNetwork.globalObserver.globalFunctions[0].function.observer 	"XmlPsAppMessageObserver: Node 127 Received Messages" 	0
scalar SimpleUnderlayNetwork.globalObserver.globalFunctions[0].function.observer 	"XmlPsAppMessageObserver: Node 127 False Positives" 	0
scalar SimpleUnderlayNetwork.globalObserver.globalFunctions[0].function.observer 	"XmlPsAppMessageObserver: Node 127 Sent Publication" 	113
scalar SimpleUnderlayNetwork.globalObserver.globalFunctions[0].function.observer 	"XmlPsAppMessageObserver: Node 128 Sent Subscription" 	0
scalar SimpleUnderlayNetwork.globalObserver.globalFunctions[0].function.observer 	"XmlPsAppMessageObserver: Node 128 Received Messages" 	0
scalar SimpleUnderlayNetwork.globalObserver.globalFunctions[0].function.observer 	"XmlPsAppMessageObserver: Node 128 False Positives" 	0
scalar SimpleUnderlayNetwork.globalObserver.globalFunctions[0].function.observer 	"XmlPsAppMessageObserver: Node 128 Sent Publication" 	105
scalar SimpleUnderlayNetwork.globalObserver.globalFunctions[0].function.observer 	"XmlPsAppMessageObserver: Node 129 Sent Subscription" 	0
scalar SimpleUnderlayNetwork.globalObserver.globalFunctions[0].function.observer 	"XmlPsAppMessageObserver: Node 129 Received Messages" 	0
scalar SimpleUnderlayNetwork.globalObserver.globalFunctions[0].function.observer 	"XmlPsAppMessageObserver: Node 129 False Positives" 	0
scalar SimpleUnderlayNetwork.globalObserver.globalFunctions[0].function.observer 	"XmlPsAppMessageObserver: Node 129 Sent Publication" 	90
scalar SimpleUnderlayNetwork.globalObserver.globalFunctions[0].function.observer 	"XmlPsAppMessageObserver: Node 130 Sent Subscription" 	0
scalar SimpleUnderlayNetwork.globalObserver.globalFunctions[0].function.observer 	"XmlPsAppMessageObserver: Node 130 Received Messages" 	0
scalar SimpleUnderlayNetwork.globalObserver.globalFunctions[0].function.observer 	"XmlPsAppMessageObserver: Node 130 False Positives" 	0
scalar SimpleUnderlayNetwork.globalObserver.globalFunctions[0].function.observer 	"XmlPsAppMessageObserver: Node 130 Sent Publication" 	109
scalar SimpleUnderlayNetwork.globalObserver.globalFunctions[0].function.observer 	"XmlPsAppMessageObserver: Node 131 Sent Subscription" 	0
scalar SimpleUnderlayNetwork.globalObserver.globalFunctions[0].function.observer 	"XmlPsAppMessageObserver: Node 131 Received Messages" 	0
scalar SimpleUnderlayNetwork.globalObserver.globalFunctions[0].function.observer 	"XmlPsAppMessageObserver: Node 131 False Positives" 	0
scalar SimpleUnderlayNetwork.globalObserver.globalFunctions[0].function.observer 	"XmlPsAppMessageObserver: Node 131 Sent Publication" 	104
scalar SimpleUnderlayNetwork.globalObserver.globalFunctions[0].function.observer 	"XmlPsAppMessageObserver: Node 132 Sent Subscription" 	0
scalar SimpleUnderlayNetwork.globalObserver.globalFunctions[0].function.observer 	"XmlPsAppMessageObserver: Node 132 Received Messages" 	0
scalar SimpleUnderlayNetwork.globalObserver.globalFunctions[0].function.observer 	"XmlPsAppMessageObserver: Node 132 False Positives" 	0
scalar SimpleUnderlayNetwork.globalObserver.globalFunctions[0].function.observer 	"XmlPsAppMessageObserver: Node 132 Sent Publication" 	97
scalar SimpleUnderlayNetwork.globalObserver.globalFunctions[0].function.observer 	"XmlPsAppMessageObserver: Node 133 Sent Subscription" 	0
scalar SimpleUnderlayNetwork.globalObserver.globalFunctions[0].function.observer 	"XmlPsAppMessageObserver: Node 133 Received Messages" 	0
scalar SimpleUnderlayNetwork.globalObserver.globalFunctions[0].function.observer 	"XmlPsAppMessageObserver: Node 133 False Positives" 	0
scalar SimpleUnderlayNetwork.globalObserver.globalFunctions[0].function.observer 	"XmlPsAppMessageObserver: Node 133 Sent Publication" 	111
scalar SimpleUnderlayNetwork.globalObserver.globalFunctions[0].function.observer 	"XmlPsAppMessageObserver: Node 134 Sent Subscription" 	0
scalar SimpleUnderlayNetwork.globalObserver.globalFunctions[0].function.observer 	"XmlPsAppMessageObserver: Node 134 Received Messages" 	0
scalar SimpleUnderlayNetwork.globalObserver.globalFunctions[0].function.observer 	"XmlPsAppMessageObserver: Node 134 False Positives" 	0
scalar SimpleUnderlayNetwork.globalObserver.globalFunctions[0].function.observer 	"XmlPsAppMessageObserver: Node 134 Sent Publication" 	107
scalar SimpleUnderlayNetwork.globalObserver.globalFunctions[0].function.observer 	"XmlPsAppMessageObserver: Node 135 Sent Subscription" 	0
scalar SimpleUnderlayNetwork.globalObserver.globalFunctions[0].function.observer 	"XmlPsAppMessageObserver: Node 135 Received Messages" 	0
scalar SimpleUnderlayNetwork.globalObserver.globalFunctions[0].function.observer 	"XmlPsAppMessageObserver: Node 135 False Positives" 	0
scalar SimpleUnderlayNetwork.globalObserver.globalFunctions[0].function.observer 	"XmlPsAppMessageObserver: Node 135 Sent Publication" 	90
scalar SimpleUnderlayNetwork.globalObserver.globalFunctions[0].function.observer 	"XmlPsAppMessageObserver: Node 136 Sent Subscription" 	0
scalar SimpleUnderlayNetwork.globalObserver.globalFunctions[0].function.observer 	"XmlPsAppMessageObserver: Node 136 Received Messages" 	0
scalar SimpleUnderlayNetwork.globalObserver.globalFunctions[0].function.observer 	"XmlPsAppMessageObserver: Node 136 False Positives" 	0
scalar SimpleUnderlayNetwork.globalObserver.globalFunctions[0].function.observer 	"XmlPsAppMessageObserver: Node 136 Sent Publication" 	109
scalar SimpleUnderlayNetwork.globalObserver.globalFunctions[0].function.observer 	"XmlPsAppMessageObserver: Node 137 Sent Subscription" 	1
scalar SimpleUnderlayNetwork.globalObserver.globalFunctions[0].function.observer 	"XmlPsAppMessageObserver: Node 137 Received Messages" 	870
scalar SimpleUnderlayNetwork.globalObserver.globalFunctions[0].function.observer 	"XmlPsAppMessageObserver: Node 137 False Positives" 	870
scalar SimpleUnderlayNetwork.globalObserver.globalFunctions[0].function.observer 	"XmlPsAppMessageObserver: Node 137 Sent Publication" 	88
scalar SimpleUnderlayNetwork.globalObserver.globalFunctions[0].function.observer 	"XmlPsAppMessageObserver: Node 138 Sent Subscription" 	0
scalar SimpleUnderlayNetwork.globalObserver.globalFunctions[0].function.observer 	"XmlPsAppMessageObserver: Node 138 Received Messages" 	0
scalar SimpleUnderlayNetwork.globalObserver.globalFunctions[0].function.observer 	"XmlPsAppMessageObserver: Node 138 False Positives" 	0
scalar SimpleUnderlayNetwork.globalObserver.globalFunctions[0].function.observer 	"XmlPsAppMessageObserver: Node 138 Sent Publication" 	116
scalar SimpleUnderlayNetwork.globalObserver.globalFunctions[0].function.observer 	"XmlPsAppMessageObserver: Node 139 Sent Subscription" 	1
scalar SimpleUnderlayNetwork.globalObserver.globalFunctions[0].function.observer 	"XmlPsAppMessageObserver: Node 139 Received Messages" 	1
scalar SimpleUnderlayNetwork.globalObserver.globalFunctions[0].function.observer 	"XmlPsAppMessageObserver: Node 139 False Positives" 	1
scalar SimpleUnderlayNetwork.globalObserver.globalFunctions[0].function.observer 	"XmlPsAppMessageObserver: Node 139 Sent Publication" 	92
scalar SimpleUnderlayNetwork.globalObserver.globalFunctions[0].function.observer 	"XmlPsAppMessageObserver: Node 140 Sent Subscription" 	0
scalar SimpleUnderlayNetwork.globalObserver.globalFunctions[0].function.observer 	"XmlPsAppMessageObserver: Node 140 Received Messages" 	0
scalar SimpleUnderlayNetwork.globalObserver.globalFunctions[0].function.observer 	"XmlPsAppMessageObserver: Node 140 False Positives" 	0
scalar SimpleUnderlayNetwork.globalObserver.globalFunctions[0].function.observer 	"XmlPsAppMessageObserver: Node 140 Sent Publication" 	101
scalar SimpleUnderlayNetwork.globalObserver.globalFunctions[0].function.observer 	"XmlPsAppMessageObserver: Node 141 Sent Subscription" 	0
scalar SimpleUnderlayNetwork.globalObserver.globalFunctions[0].function.observer 	"XmlPsAppMessageObserver: Node 141 Received Messages" 	0
scalar SimpleUnderlayNetwork.globalObserver.globalFunctions[0].function.observer 	"XmlPsAppMessageObserver: Node 141 False Positives" 	0
scalar SimpleUnderlayNetwork.globalObserver.globalFunctions[0].function.observer 	"XmlPsAppMessageObserver: Node 141 Sent Publication" 	105
scalar SimpleUnderlayNetwork.globalObserver.globalFunctions[0].function.observer 	"XmlPsAppMessageObserver: Node 142 Sent Subscription" 	0
scalar SimpleUnderlayNetwork.globalObserver.globalFunctions[0].function.observer 	"XmlPsAppMessageObserver: Node 142 Received Messages" 	0
scalar SimpleUnderlayNetwork.globalObserver.globalFunctions[0].function.observer 	"XmlPsAppMessageObserver: Node 142 False Positives" 	0
scalar SimpleUnderlayNetwork.globalObserver.globalFunctions[0].function.observer 	"XmlPsAppMessageObserver: Node 142 Sent Publication" 	90
scalar SimpleUnderlayNetwork.globalObserver.globalFunctions[0].function.observer 	"XmlPsAppMessageObserver: Node 143 Sent Subscription" 	0
scalar SimpleUnderlayNetwork.globalObserver.globalFunctions[0].function.observer 	"XmlPsAppMessageObserver: Node 143 Received Messages" 	0
scalar SimpleUnderlayNetwork.globalObserver.globalFunctions[0].function.observer 	"XmlPsAppMessageObserver: Node 143 False Positives" 	0
[...]
scalar SimpleUnderlayNetwork.globalObserver.globalStatistics 	"BaseOverlay: Sent FailedNode Bytes/s.stddev" 	0
scalar SimpleUnderlayNetwork.globalObserver.globalStatistics 	"BaseOverlay: Sent FailedNode Bytes/s.min" 	0
scalar SimpleUnderlayNetwork.globalObserver.globalStatistics 	"BaseOverlay: Sent FailedNode Bytes/s.max" 	0
scalar SimpleUnderlayNetwork.globalObserver.globalStatistics 	"BaseOverlay: Sent FailedNode Messages/s.mean" 	0
scalar SimpleUnderlayNetwork.globalObserver.globalStatistics 	"BaseOverlay: Sent FailedNode Messages/s.stddev" 	0
scalar SimpleUnderlayNetwork.globalObserver.globalStatistics 	"BaseOverlay: Sent FailedNode Messages/s.min" 	0
scalar SimpleUnderlayNetwork.globalObserver.globalStatistics 	"BaseOverlay: Sent FailedNode Messages/s.max" 	0
scalar SimpleUnderlayNetwork.globalObserver.globalStatistics 	"BaseOverlay: Sent FailedNodeResponse Bytes/s.mean" 	0
scalar SimpleUnderlayNetwork.globalObserver.globalStatistics 	"BaseOverlay: Sent FailedNodeResponse Bytes/s.stddev" 	0
scalar SimpleUnderlayNetwork.globalObserver.globalStatistics 	"BaseOverlay: Sent FailedNodeResponse Bytes/s.min" 	0
scalar SimpleUnderlayNetwork.globalObserver.globalStatistics 	"BaseOverlay: Sent FailedNodeResponse Bytes/s.max" 	0
scalar SimpleUnderlayNetwork.globalObserver.globalStatistics 	"BaseOverlay: Sent FailedNodeResponse Messages/s.mean" 	0
scalar SimpleUnderlayNetwork.globalObserver.globalStatistics 	"BaseOverlay: Sent FailedNodeResponse Messages/s.stddev" 	0
scalar SimpleUnderlayNetwork.globalObserver.globalStatistics 	"BaseOverlay: Sent FailedNodeResponse Messages/s.min" 	0
scalar SimpleUnderlayNetwork.globalObserver.globalStatistics 	"BaseOverlay: Sent FailedNodeResponse Messages/s.max" 	0
scalar SimpleUnderlayNetwork.globalObserver.globalStatistics 	"BaseOverlay: Sent FindNode Bytes/s.mean" 	2.8656530761719
scalar SimpleUnderlayNetwork.globalObserver.globalStatistics 	"BaseOverlay: Sent FindNode Bytes/s.stddev" 	0.48128650612912
scalar SimpleUnderlayNetwork.globalObserver.globalStatistics 	"BaseOverlay: Sent FindNode Bytes/s.min" 	0
scalar SimpleUnderlayNetwork.globalObserver.globalStatistics 	"BaseOverlay: Sent FindNode Bytes/s.max" 	5.85
scalar SimpleUnderlayNetwork.globalObserver.globalStatistics 	"BaseOverlay: Sent FindNode Messages/s.mean" 	0.15920294867622
scalar SimpleUnderlayNetwork.globalObserver.globalStatistics 	"BaseOverlay: Sent FindNode Messages/s.stddev" 	0.026738139229395
scalar SimpleUnderlayNetwork.globalObserver.globalStatistics 	"BaseOverlay: Sent FindNode Messages/s.min" 	0
scalar SimpleUnderlayNetwork.globalObserver.globalStatistics 	"BaseOverlay: Sent FindNode Messages/s.max" 	0.325
scalar SimpleUnderlayNetwork.globalObserver.globalStatistics 	"BaseOverlay: Sent FindNodeResponse Bytes/s.mean" 	3.4886730957031
scalar SimpleUnderlayNetwork.globalObserver.globalStatistics 	"BaseOverlay: Sent FindNodeResponse Bytes/s.stddev" 	13.465153523115
scalar SimpleUnderlayNetwork.globalObserver.globalStatistics 	"BaseOverlay: Sent FindNodeResponse Bytes/s.min" 	0
scalar SimpleUnderlayNetwork.globalObserver.globalStatistics 	"BaseOverlay: Sent FindNodeResponse Bytes/s.max" 	684.45361111111
scalar SimpleUnderlayNetwork.globalObserver.globalStatistics 	"BaseOverlay: Sent FindNodeResponse Messages/s.mean" 	0.15920267740885
scalar SimpleUnderlayNetwork.globalObserver.globalStatistics 	"BaseOverlay: Sent FindNodeResponse Messages/s.stddev" 	0.61216741026751
scalar SimpleUnderlayNetwork.globalObserver.globalStatistics 	"BaseOverlay: Sent FindNodeResponse Messages/s.min" 	0
scalar SimpleUnderlayNetwork.globalObserver.globalStatistics 	"BaseOverlay: Sent FindNodeResponse Messages/s.max" 	31.111527777778
scalar SimpleUnderlayNetwork.globalObserver.globalStatistics 	"BaseOverlay: Sent Maintenance Bytes/s.mean" 	21.91254184299
scalar SimpleUnderlayNetwork.globalObserver.globalStatistics 	"BaseOverlay: Sent Maintenance Bytes/s.stddev" 	2.0802999147394
scalar SimpleUnderlayNetwork.globalObserver.globalStatistics 	"BaseOverlay: Sent Maintenance Bytes/s.min" 	3
scalar SimpleUnderlayNetwork.globalObserver.globalStatistics 	"BaseOverlay: Sent Maintenance Bytes/s.max" 	46.608333333333
scalar SimpleUnderlayNetwork.globalObserver.globalStatistics 	"BaseOverlay: Sent Maintenance Messages/s.mean" 	0.990751953125
scalar SimpleUnderlayNetwork.globalObserver.globalStatistics 	"BaseOverlay: Sent Maintenance Messages/s.stddev" 	0.11767774333796
scalar SimpleUnderlayNetwork.globalObserver.globalStatistics 	"BaseOverlay: Sent Maintenance Messages/s.min" 	0.1
scalar SimpleUnderlayNetwork.globalObserver.globalStatistics 	"BaseOverlay: Sent Maintenance Messages/s.max" 	2.4597222222222
scalar SimpleUnderlayNetwork.globalObserver.globalStatistics 	"BaseOverlay: Sent Ping Bytes/s.mean" 	2.7753906249999
scalar SimpleUnderlayNetwork.globalObserver.globalStatistics 	"BaseOverlay: Sent Ping Bytes/s.stddev" 	0.26137579783341
scalar SimpleUnderlayNetwork.globalObserver.globalStatistics 	"BaseOverlay: Sent Ping Bytes/s.min" 	0
scalar SimpleUnderlayNetwork.globalObserver.globalStatistics 	"BaseOverlay: Sent Ping Bytes/s.max" 	2.8
scalar SimpleUnderlayNetwork.globalObserver.globalStatistics 	"BaseOverlay: Sent Ping Messages/s.mean" 	0.19824218750001
scalar SimpleUnderlayNetwork.globalObserver.globalStatistics 	"BaseOverlay: Sent Ping Messages/s.stddev" 	0.018669699845031
scalar SimpleUnderlayNetwork.globalObserver.globalStatistics 	"BaseOverlay: Sent Ping Messages/s.min" 	0
scalar SimpleUnderlayNetwork.globalObserver.globalStatistics 	"BaseOverlay: Sent Ping Messages/s.max" 	0.2
scalar SimpleUnderlayNetwork.globalObserver.globalStatistics 	"BaseOverlay: Sent Ping Response Bytes/s.mean" 	2.7753925238714
scalar SimpleUnderlayNetwork.globalObserver.globalStatistics 	"BaseOverlay: Sent Ping Response Bytes/s.stddev" 	0.26137598371981
scalar SimpleUnderlayNetwork.globalObserver.globalStatistics 	"BaseOverlay: Sent Ping Response Bytes/s.min" 	0
scalar SimpleUnderlayNetwork.globalObserver.globalStatistics 	"BaseOverlay: Sent Ping Response Bytes/s.max" 	2.8019444444444
scalar SimpleUnderlayNetwork.globalObserver.globalStatistics 	"BaseOverlay: Sent Ping Response Messages/s.mean" 	0.19824232313369
scalar SimpleUnderlayNetwork.globalObserver.globalStatistics 	"BaseOverlay: Sent Ping Response Messages/s.stddev" 	0.018669713122632
scalar SimpleUnderlayNetwork.globalObserver.globalStatistics 	"BaseOverlay: Sent Ping Response Messages/s.min" 	0
scalar SimpleUnderlayNetwork.globalObserver.globalStatistics 	"BaseOverlay: Sent Ping Response Messages/s.max" 	0.20013888888889
scalar SimpleUnderlayNetwork.globalObserver.globalStatistics 	"BaseOverlay: Sent Total Bytes/s.mean" 	1843.9508628337
scalar SimpleUnderlayNetwork.globalObserver.globalStatistics 	"BaseOverlay: Sent Total Bytes/s.stddev" 	6376.5105402377
scalar SimpleUnderlayNetwork.globalObserver.globalStatistics 	"BaseOverlay: Sent Total Bytes/s.min" 	3
scalar SimpleUnderlayNetwork.globalObserver.globalStatistics 	"BaseOverlay: Sent Total Bytes/s.max" 	71588.40625
scalar SimpleUnderlayNetwork.globalObserver.globalStatistics 	"BaseOverlay: Sent Total Messages/s.mean" 	1.1247983805339
scalar SimpleUnderlayNetwork.globalObserver.globalStatistics 	"BaseOverlay: Sent Total Messages/s.stddev" 	1.051936840445
scalar SimpleUnderlayNetwork.globalObserver.globalStatistics 	"BaseOverlay: Sent Total Messages/s.min" 	0.1
scalar SimpleUnderlayNetwork.globalObserver.globalStatistics 	"BaseOverlay: Sent Total Messages/s.max" 	62.958611111111
scalar SimpleUnderlayNetwork.globalObserver.globalStatistics 	"Chord: Sent FIX_FINGERS Bytes/s.mean" 	5.5610780504014
scalar SimpleUnderlayNetwork.globalObserver.globalStatistics 	"Chord: Sent FIX_FINGERS Bytes/s.stddev" 	0.55473126406024
scalar SimpleUnderlayNetwork.globalObserver.globalStatistics 	"Chord: Sent FIX_FINGERS Bytes/s.min" 	0
scalar SimpleUnderlayNetwork.globalObserver.globalStatistics 	"Chord: Sent FIX_FINGERS Bytes/s.max" 	5.6876388888889
scalar SimpleUnderlayNetwork.globalObserver.globalStatistics 	"Chord: Sent FIX_FINGERS Messages/s.mean" 	0.17938961452907
scalar SimpleUnderlayNetwork.globalObserver.globalStatistics 	"Chord: Sent FIX_FINGERS Messages/s.stddev" 	0.017894556905335
scalar SimpleUnderlayNetwork.globalObserver.globalStatistics 	"Chord: Sent FIX_FINGERS Messages/s.min" 	0
scalar SimpleUnderlayNetwork.globalObserver.globalStatistics 	"Chord: Sent FIX_FINGERS Messages/s.max" 	0.18347222222222
scalar SimpleUnderlayNetwork.globalObserver.globalStatistics 	"Chord: Sent JOIN Bytes/s.mean" 	0.0263671875
scalar SimpleUnderlayNetwork.globalObserver.globalStatistics 	"Chord: Sent JOIN Bytes/s.stddev" 	0.28004549767713
scalar SimpleUnderlayNetwork.globalObserver.globalStatistics 	"Chord: Sent JOIN Bytes/s.min" 	0
scalar SimpleUnderlayNetwork.globalObserver.globalStatistics 	"Chord: Sent JOIN Bytes/s.max" 	3
scalar SimpleUnderlayNetwork.globalObserver.globalStatistics 	"Chord: Sent JOIN Messages/s.mean" 	0.00087890625
scalar SimpleUnderlayNetwork.globalObserver.globalStatistics 	"Chord: Sent JOIN Messages/s.stddev" 	0.009334849922571
scalar SimpleUnderlayNetwork.globalObserver.globalStatistics 	"Chord: Sent JOIN Messages/s.min" 	0
scalar SimpleUnderlayNetwork.globalObserver.globalStatistics 	"Chord: Sent JOIN Messages/s.max" 	0.1
scalar SimpleUnderlayNetwork.globalObserver.globalStatistics 	"Chord: Sent NEWSUCCESSORHINT Bytes/s.mean" 	0
scalar SimpleUnderlayNetwork.globalObserver.globalStatistics 	"Chord: Sent NEWSUCCESSORHINT Bytes/s.stddev" 	0
scalar SimpleUnderlayNetwork.globalObserver.globalStatistics 	"Chord: Sent NEWSUCCESSORHINT Bytes/s.min" 	0
scalar SimpleUnderlayNetwork.globalObserver.globalStatistics 	"Chord: Sent NEWSUCCESSORHINT Bytes/s.max" 	0
scalar SimpleUnderlayNetwork.globalObserver.globalStatistics 	"Chord: Sent NEWSUCCESSORHINT Messages/s.mean" 	0
scalar SimpleUnderlayNetwork.globalObserver.globalStatistics 	"Chord: Sent NEWSUCCESSORHINT Messages/s.stddev" 	0
scalar SimpleUnderlayNetwork.globalObserver.globalStatistics 	"Chord: Sent NEWSUCCESSORHINT Messages/s.min" 	0
scalar SimpleUnderlayNetwork.globalObserver.globalStatistics 	"Chord: Sent NEWSUCCESSORHINT Messages/s.max" 	0
scalar SimpleUnderlayNetwork.globalObserver.globalStatistics 	"Chord: Sent NOTIFY Bytes/s.mean" 	4.8335237291124
scalar SimpleUnderlayNetwork.globalObserver.globalStatistics 	"Chord: Sent NOTIFY Bytes/s.stddev" 	0.88180716886795
scalar SimpleUnderlayNetwork.globalObserver.globalStatistics 	"Chord: Sent NOTIFY Bytes/s.min" 	0
scalar SimpleUnderlayNetwork.globalObserver.globalStatistics 	"Chord: Sent NOTIFY Bytes/s.max" 	13.4
scalar SimpleUnderlayNetwork.globalObserver.globalStatistics 	"Chord: Sent NOTIFY Messages/s.mean" 	0.10287685818143
scalar SimpleUnderlayNetwork.globalObserver.globalStatistics 	"Chord: Sent NOTIFY Messages/s.stddev" 	0.048688045284657
scalar SimpleUnderlayNetwork.globalObserver.globalStatistics 	"Chord: Sent NOTIFY Messages/s.min" 	0
scalar SimpleUnderlayNetwork.globalObserver.globalStatistics 	"Chord: Sent NOTIFY Messages/s.max" 	0.71111111111111
scalar SimpleUnderlayNetwork.globalObserver.globalStatistics 	"Chord: Sent STABILIZE Bytes/s.mean" 	1.8793164740668
scalar SimpleUnderlayNetwork.globalObserver.globalStatistics 	"Chord: Sent STABILIZE Bytes/s.stddev" 	1.2072356950426
scalar SimpleUnderlayNetwork.globalObserver.globalStatistics 	"Chord: Sent STABILIZE Bytes/s.min" 	0
scalar SimpleUnderlayNetwork.globalObserver.globalStatistics 	"Chord: Sent STABILIZE Bytes/s.max" 	14.583333333333
scalar SimpleUnderlayNetwork.globalObserver.globalStatistics 	"Chord: Sent STABILIZE Messages/s.mean" 	0.10738949245877
scalar SimpleUnderlayNetwork.globalObserver.globalStatistics 	"Chord: Sent STABILIZE Messages/s.stddev" 	0.067654393693681
scalar SimpleUnderlayNetwork.globalObserver.globalStatistics 	"Chord: Sent STABILIZE Messages/s.min" 	0
scalar SimpleUnderlayNetwork.globalObserver.globalStatistics 	"Chord: Sent STABILIZE Messages/s.max" 	0.71111111111111
scalar SimpleUnderlayNetwork.globalObserver.globalStatistics 	"Dxps: Forwarded Publication Bytes/s.mean" 	0.78849470350477
scalar SimpleUnderlayNetwork.globalObserver.globalStatistics 	"Dxps: Forwarded Publication Bytes/s.stddev" 	22.110913475459
scalar SimpleUnderlayNetwork.globalObserver.globalStatistics 	"Dxps: Forwarded Publication Bytes/s.min" 	0
scalar SimpleUnderlayNetwork.globalObserver.globalStatistics 	"Dxps: Forwarded Publication Bytes/s.max" 	808.17125
scalar SimpleUnderlayNetwork.globalObserver.globalStatistics 	"Dxps: Forwarded Publication Messages/s.mean" 	0.00015397813585069
scalar SimpleUnderlayNetwork.globalObserver.globalStatistics 	"Dxps: Forwarded Publication Messages/s.stddev" 	0.0043194530076137
scalar SimpleUnderlayNetwork.globalObserver.globalStatistics 	"Dxps: Forwarded Publication Messages/s.min" 	0
scalar SimpleUnderlayNetwork.globalObserver.globalStatistics 	"Dxps: Forwarded Publication Messages/s.max" 	0.15777777777778
scalar SimpleUnderlayNetwork.globalObserver.globalStatistics 	"Dxps: Received JOIN Messages/s.mean" 	0
scalar SimpleUnderlayNetwork.globalObserver.globalStatistics 	"Dxps: Received JOIN Messages/s.stddev" 	0
scalar SimpleUnderlayNetwork.globalObserver.globalStatistics 	"Dxps: Received JOIN Messages/s.min" 	0
scalar SimpleUnderlayNetwork.globalObserver.globalStatistics 	"Dxps: Received JOIN Messages/s.max" 	0
scalar SimpleUnderlayNetwork.globalObserver.globalStatistics 	"Dxps: Received Publication Bytes/s (subscribed groups only).mean" 	0.00027262369791667
scalar SimpleUnderlayNetwork.globalObserver.globalStatistics 	"Dxps: Received Publication Bytes/s (subscribed groups only).stddev" 	0.0095398570636228
scalar SimpleUnderlayNetwork.globalObserver.globalStatistics 	"Dxps: Received Publication Bytes/s (subscribed groups only).min" 	0
scalar SimpleUnderlayNetwork.globalObserver.globalStatistics 	"Dxps: Received Publication Bytes/s (subscribed groups only).max" 	0.47333333333333
scalar SimpleUnderlayNetwork.globalObserver.globalStatistics 	"Dxps: Received Publication Messages/s (subscribed groups only).mean" 	9.0874565972222e-05
scalar SimpleUnderlayNetwork.globalObserver.globalStatistics 	"Dxps: Received Publication Messages/s (subscribed groups only).stddev" 	0.0031799523545409
scalar SimpleUnderlayNetwork.globalObserver.globalStatistics 	"Dxps: Received Publication Messages/s (subscribed groups only).min" 	0
scalar SimpleUnderlayNetwork.globalObserver.globalStatistics 	"Dxps: Received Publication Messages/s (subscribed groups only).max" 	0.15777777777778
scalar SimpleUnderlayNetwork.globalObserver.globalStatistics 	"SimpleTCP: Packets dropped due to network partitions.mean" 	0
scalar SimpleUnderlayNetwork.globalObserver.globalStatistics 	"SimpleTCP: Packets dropped due to network partitions.stddev" 	0
scalar SimpleUnderlayNetwork.globalObserver.globalStatistics 	"SimpleTCP: Packets dropped due to network partitions.min" 	0
scalar SimpleUnderlayNetwork.globalObserver.globalStatistics 	"SimpleTCP: Packets dropped due to network partitions.max" 	0
scalar SimpleUnderlayNetwork.globalObserver.globalStatistics 	"SimpleTCP: Packets dropped due to queue overflows.mean" 	0
scalar SimpleUnderlayNetwork.globalObserver.globalStatistics 	"SimpleTCP: Packets dropped due to queue overflows.stddev" 	0
scalar SimpleUnderlayNetwork.globalObserver.globalStatistics 	"SimpleTCP: Packets dropped due to queue overflows.min" 	0
scalar SimpleUnderlayNetwork.globalObserver.globalStatistics 	"SimpleTCP: Packets dropped due to queue overflows.max" 	0
scalar SimpleUnderlayNetwork.globalObserver.globalStatistics 	"SimpleTCP: Packets dropped due to unavailable destination.mean" 	0
scalar SimpleUnderlayNetwork.globalObserver.globalStatistics 	"SimpleTCP: Packets dropped due to unavailable destination.stddev" 	0
scalar SimpleUnderlayNetwork.globalObserver.globalStatistics 	"SimpleTCP: Packets dropped due to unavailable destination.min" 	0
scalar SimpleUnderlayNetwork.globalObserver.globalStatistics 	"SimpleTCP: Packets dropped due to unavailable destination.max" 	0
scalar SimpleUnderlayNetwork.globalObserver.globalStatistics 	"SimpleTCP: Packets sent.mean" 	0
scalar SimpleUnderlayNetwork.globalObserver.globalStatistics 	"SimpleTCP: Packets sent.stddev" 	0
scalar SimpleUnderlayNetwork.globalObserver.globalStatistics 	"SimpleTCP: Packets sent.min" 	0
scalar SimpleUnderlayNetwork.globalObserver.globalStatistics 	"SimpleTCP: Packets sent.max" 	0
scalar SimpleUnderlayNetwork.globalObserver.globalStatistics 	"SimpleUDP: Packets dropped due to network partitions.mean" 	0
scalar SimpleUnderlayNetwork.globalObserver.globalStatistics 	"SimpleUDP: Packets dropped due to network partitions.stddev" 	0
scalar SimpleUnderlayNetwork.globalObserver.globalStatistics 	"SimpleUDP: Packets dropped due to network partitions.min" 	0
scalar SimpleUnderlayNetwork.globalObserver.globalStatistics 	"SimpleUDP: Packets dropped due to network partitions.max" 	0
scalar SimpleUnderlayNetwork.globalObserver.globalStatistics 	"SimpleUDP: Packets dropped due to queue overflows.mean" 	0.365966796875
scalar SimpleUnderlayNetwork.globalObserver.globalStatistics 	"SimpleUDP: Packets dropped due to queue overflows.stddev" 	0.60692297678699
scalar SimpleUnderlayNetwork.globalObserver.globalStatistics 	"SimpleUDP: Packets dropped due to queue overflows.min" 	0
scalar SimpleUnderlayNetwork.globalObserver.globalStatistics 	"SimpleUDP: Packets dropped due to queue overflows.max" 	4
scalar SimpleUnderlayNetwork.globalObserver.globalStatistics 	"SimpleUDP: Packets dropped due to unavailable destination.mean" 	0
scalar SimpleUnderlayNetwork.globalObserver.globalStatistics 	"SimpleUDP: Packets dropped due to unavailable destination.stddev" 	0
scalar SimpleUnderlayNetwork.globalObserver.globalStatistics 	"SimpleUDP: Packets dropped due to unavailable destination.min" 	0
scalar SimpleUnderlayNetwork.globalObserver.globalStatistics 	"SimpleUDP: Packets dropped due to unavailable destination.max" 	0
scalar SimpleUnderlayNetwork.globalObserver.globalStatistics 	"SimpleUDP: Packets dropped with bad checksum.mean" 	0
scalar SimpleUnderlayNetwork.globalObserver.globalStatistics 	"SimpleUDP: Packets dropped with bad checksum.stddev" 	0
scalar SimpleUnderlayNetwork.globalObserver.globalStatistics 	"SimpleUDP: Packets dropped with bad checksum.min" 	0
scalar SimpleUnderlayNetwork.globalObserver.globalStatistics 	"SimpleUDP: Packets dropped with bad checksum.max" 	0
scalar SimpleUnderlayNetwork.globalObserver.globalStatistics 	"SimpleUDP: Packets sent.mean" 	12657.445556641
scalar SimpleUnderlayNetwork.globalObserver.globalStatistics 	"SimpleUDP: Packets sent.stddev" 	8977.1471612664
scalar SimpleUnderlayNetwork.globalObserver.globalStatistics 	"SimpleUDP: Packets sent.min" 	845
scalar SimpleUnderlayNetwork.globalObserver.globalStatistics 	"SimpleUDP: Packets sent.max" 	491226
scalar SimpleUnderlayNetwork.globalObserver.globalStatistics 	"XmlPsAppMessageObserver: Looped messages/s.mean" 	0.00013888888888889
scalar SimpleUnderlayNetwork.globalObserver.globalStatistics 	"XmlPsAppMessageObserver: Looped messages/s.stddev" 	-nan
scalar SimpleUnderlayNetwork.globalObserver.globalStatistics 	"XmlPsAppMessageObserver: Looped messages/s.min" 	0.00013888888888889
scalar SimpleUnderlayNetwork.globalObserver.globalStatistics 	"XmlPsAppMessageObserver: Looped messages/s.max" 	0.00013888888888889
scalar SimpleUnderlayNetwork.globalObserver.globalStatistics 	"XmlPsAppMessageObserver: Subscribers/Publishing.mean" 	0.0080340774290952
scalar SimpleUnderlayNetwork.globalObserver.globalStatistics 	"XmlPsAppMessageObserver: Subscribers/Publishing.stddev" 	0.16530845923247
scalar SimpleUnderlayNetwork.globalObserver.globalStatistics 	"XmlPsAppMessageObserver: Subscribers/Publishing.min" 	0
scalar SimpleUnderlayNetwork.globalObserver.globalStatistics 	"XmlPsAppMessageObserver: Subscribers/Publishing.max" 	6
scalar SimpleUnderlayNetwork.globalObserver.globalStatistics 	"Vector: GlobalNodeList: Number of nodes.mean" 	4096
